version 2
run Handover-General-0-20221110-10:19:47-5707
attr configname Handover-General
attr datetime 20221110-10:19:47
attr experiment Handover-General
attr inifile omnetpp.ini
attr iterationvars ""
attr iterationvarsf ""
attr measurement ""
attr network inet.examples.simulations.networks.MultiCell
attr processid 5707
attr repetition 0
attr replication #0
attr resultdir results
attr runnumber 0
attr seedset 0
param **.ue1*.macCellId 1
param **.ue1*.masterId 1
param **.ue2*.macCellId 2
param **.ue2*.masterId 2
param **.lteNic.phy.enableHandover true
param *.eNodeB*.numX2Apps 1
param *.eNodeB*.x2App[*].server.localPort "5000 + ancestorIndex(1)"
param *.eNodeB1.x2App[0].client.connectAddress "\"eNodeB2%x2ppp0\""
param *.eNodeB2.x2App[0].client.connectAddress "\"eNodeB1%x2ppp0\""
param **.mobility.initFromDisplayString false
param *.eNodeB1.mobility.initialX 300m
param *.eNodeB1.mobility.initialY 500m
param *.eNodeB2.mobility.initialX 400m
param *.eNodeB2.mobility.initialY 250m
param *.ue11.mobility.initialX 350m
param *.ue11.mobility.initialY 280m
param *.ue11.mobility.speed 10mps
param *.ue11.mobility.initialMovementHeading 0deg
param *.ue11.mobilityType "\"LinearMobility\""
param *.ue11.mobility.constraintAreaMinX 250m
param *.ue11.mobility.constraintAreaMaxX 450m
param *.ue12.mobility.initialX 320m
param *.ue12.mobility.initialY 280m
param *.ue12.mobility.speed 10mps
param *.ue12.mobility.initialMovementHeading 0deg
param *.ue12.mobilityType "\"LinearMobility\""
param *.ue12.mobility.constraintAreaMinX 250m
param *.ue12.mobility.constraintAreaMaxX 450m
param *.ue*.mobility.constraintAreaMaxX 750m
param *.ue*.mobility.constraintAreaMaxY 400m
param *.ue*.mobility.constraintAreaMinX 50m
param *.ue*.mobility.constraintAreaMinY 100m
param *.ue2*.mobility.initialX uniform(450m,750m)
param *.ue2*.mobility.initialY uniform(100m,400m)
param *.ue*.mobility.initialZ 0m
param **.eNodeB*.lteNic.phy.targetBler 0.004
param **.routingRecorder.enabled false
param *.configurator.config "xmldoc(\"demo.xml\")"
param **.lteNic.channelModel.shadowing false
param **.lteNic.channelModel.fading false
param **.mobility.constraintAreaMinZ 0m
param **.mobility.constraintAreaMaxZ 0m
param **.mobility.initFromDisplayString true
param **.cellInfo.numRbDl 25
param **.cellInfo.numRbUl 25
param **.binder.numBands 25
param **.ueTxPower 26
param **.eNodeBTxPower 40

scalar MultiCell.eNodeB1.x2App[0].client ums 1452
scalar MultiCell.eNodeB2.x2App[0].client ums 1452

