version 2
run General-0-20221116-16:54:18-51760
attr configname General
attr datetime 20221116-16:54:18
attr experiment General
attr inifile omnetpp.ini
attr iterationvars ""
attr iterationvarsf ""
attr measurement ""
attr network Scenario
attr processid 51760
attr repetition 0
attr replication #0
attr resultdir results
attr runnumber 0
attr seedset 0
param *.hosts 3
param **.constraintAreaMinX 0m
param **.constraintAreaMinY 0m
param **.constraintAreaMinZ 0m
param **.constraintAreaMaxX 600m
param **.constraintAreaMaxY 400m
param **.constraintAreaMaxZ 0m
param **.host*.ipv4.configurator.typename "\"HostAutoConfigurator\""
param **.host*.ipv4.configurator.interfaces "\"wlan0\""
param **.host*.mobility.typename "\"MassMobility\""
param **.host*.mobility.initFromDisplayString false
param **.host*.mobility.changeInterval "truncnormal(2s, 0.5s)"
param **.host*.mobility.angleDelta "normal(0deg, 30deg)"
param **.host*.mobility.speed "truncnormal(20mps, 8mps)"
param **.host*.mobility.updateInterval 100ms
param **.host*.numApps 1
param **.app[0].typename "\"UdpBasicApp\""
param **.app[0].destAddresses "\"host[0]\""
param **.app[0].localPort 9001
param **.app[0].destPort 9001
param **.app[0].messageLength 100B
param **.app[0].startTime "uniform(10s, 30s)"
param **.app[0].sendInterval "uniform(10s, 30s)"
param **.wlan[*].bitrate 2Mbps
param **.wlan[*].mac.dcf.channelAccess.cwMin 7
param **.wlan[*].radio.transmitter.power 2mW
param **.wlan[*].radio.receiver.sensitivity -85dBm
param **.wlan[*].radio.receiver.snirThreshold 4dB

vector 0 Scenario.host[0].wlan[0].radio radioMode:vector ETV
attr interpolationmode sample-hold
attr source radioModeChanged
attr title "Radio mode, vector"
vector 1 Scenario.host[0].wlan[0].radio radioChannel:vector ETV
attr interpolationmode sample-hold
attr source radioChannelChanged
attr title "Radio channel, vector"
vector 2 Scenario.host[1].wlan[0].radio radioMode:vector ETV
attr interpolationmode sample-hold
attr source radioModeChanged
attr title "Radio mode, vector"
vector 3 Scenario.host[1].wlan[0].radio radioChannel:vector ETV
attr interpolationmode sample-hold
attr source radioChannelChanged
attr title "Radio channel, vector"
vector 4 Scenario.host[2].wlan[0].radio radioMode:vector ETV
attr interpolationmode sample-hold
attr source radioModeChanged
attr title "Radio mode, vector"
vector 5 Scenario.host[2].wlan[0].radio radioChannel:vector ETV
attr interpolationmode sample-hold
attr source radioChannelChanged
attr title "Radio channel, vector"
vector 6 Scenario.host[0].wlan[0].radio receptionState:vector ETV
attr interpolationmode sample-hold
attr source receptionStateChanged
attr title "Radio reception state, vector"
vector 7 Scenario.host[1].wlan[0].radio receptionState:vector ETV
attr interpolationmode sample-hold
attr source receptionStateChanged
attr title "Radio reception state, vector"
vector 8 Scenario.host[2].wlan[0].radio receptionState:vector ETV
attr interpolationmode sample-hold
attr source receptionStateChanged
attr title "Radio reception state, vector"
vector 9 Scenario.host[0].wlan[0].mac.dcf.recoveryProcedure contentionWindowChanged:vector ETV
attr interpolationmode sample-hold
attr title "contention window, vector"
vector 10 Scenario.host[1].wlan[0].mac.dcf.recoveryProcedure contentionWindowChanged:vector ETV
attr interpolationmode sample-hold
attr title "contention window, vector"
vector 11 Scenario.host[2].wlan[0].mac.dcf.recoveryProcedure contentionWindowChanged:vector ETV
attr interpolationmode sample-hold
attr title "contention window, vector"
vector 12 Scenario.host[0].app[0] packetSent:vector(packetBytes) ETV
attr interpolationmode none
attr source packetSent
attr title "packets sent, vector(packetBytes)"
vector 13 Scenario.host[0].udp packetSent:vector(packetBytes) ETV
attr interpolationmode none
attr source packetSent
attr title "packets sent, vector(packetBytes)"
vector 14 Scenario.host[0].lo[0].lo rcvdPkFromHl:vector(packetBytes) ETV
attr interpolationmode none
attr source packetReceivedFromUpper
attr title "packets received from higher layer, vector(packetBytes)"
vector 15 Scenario.host[0].lo[0].lo passedUpPk:vector(packetBytes) ETV
attr interpolationmode none
attr source packetSentToUpper
attr title "packets passed to higher layer, vector(packetBytes)"
vector 16 Scenario.host[0].udp packetReceived:vector(packetBytes) ETV
attr interpolationmode none
attr source packetReceived
attr title "packets received, vector(packetBytes)"
vector 17 Scenario.host[0].udp passedUpPk:vector(count) ETV
attr interpolationmode none
attr source packetSentToUpper
attr title "packets passed up, vector(count)"
vector 18 Scenario.host[0].app[0] packetReceived:vector(packetBytes) ETV
attr interpolationmode none
attr source packetReceived
attr title "packets received, vector(packetBytes)"
vector 19 Scenario.host[0].app[0] throughput:vector ETV
attr source throughput(packetReceived)
attr title "throughput, vector"
attr unit bps
vector 20 Scenario.host[0].app[0] rcvdPkLifetime:vector ETV
attr interpolationmode none
attr source dataAge(packetReceived)
attr title "received packet lifetime, vector"
attr unit s
vector 21 Scenario.host[0].app[0] rcvdPkSeqNo:vector ETV
attr interpolationmode none
attr source appPkSeqNo(packetReceived)
attr title "received packet sequence number, vector"
vector 22 Scenario.host[1].app[0] packetSent:vector(packetBytes) ETV
attr interpolationmode none
attr source packetSent
attr title "packets sent, vector(packetBytes)"
vector 23 Scenario.host[1].udp packetSent:vector(packetBytes) ETV
attr interpolationmode none
attr source packetSent
attr title "packets sent, vector(packetBytes)"
vector 24 Scenario.host[1].ipv4.arp arpRequestSent:vector(packetBytes) ETV
attr source arpRequestSent
attr title "ARP request sent, vector(packetBytes)"
vector 25 Scenario.host[1].wlan[0].mac packetReceivedFromUpper:vector(packetBytes) ETV
attr interpolationmode none
attr title "packets received from upper layer, vector(packetBytes)"
vector 26 Scenario.host[1].wlan[0].mac.dcf.channelAccess.pendingQueue packetPushed:vector(packetBytes) ETV
attr interpolationmode none
attr title "packet pushed, vector(packetBytes)"
vector 27 Scenario.host[1].wlan[0].mac.dcf.channelAccess.pendingQueue queueLength:vector ETV
attr interpolationmode sample-hold
attr source "count(packetPushed) - count(packetPopped) - count(packetRemoved) - count(packetDropped)"
attr title "queue length, vector"
vector 28 Scenario.host[1].wlan[0].mac.dcf.channelAccess.contention backoffPeriodGenerated:vector ETV
attr interpolationmode none
attr title "backoff periods, vector"
vector 29 Scenario.host[1].wlan[0].mac.dcf.channelAccess.contention backoffActive:vector ETV
attr interpolationmode sample-hold
attr source count(backoffStarted)-count(backoffStopped)
attr title "backoff active, vector"
vector 30 Scenario.host[1].wlan[0].mac.dcf.channelAccess.pendingQueue packetPopped:vector(packetBytes) ETV
attr interpolationmode none
attr title "packet popped, vector(packetBytes)"
vector 31 Scenario.host[1].wlan[0].mac.dcf.channelAccess.pendingQueue queueingTime:vector ETV
attr interpolationmode none
attr source queueingTime(packetPopped)
attr title "queueing times, vector"
attr unit s
vector 32 Scenario.host[1].wlan[0].mac.dcf.channelAccess.inProgressFrames queueLength:vector ETV
attr interpolationmode sample-hold
attr source "count(packetEnqueued) - count(packetDequeued)"
attr title "queue length, vector"
vector 33 Scenario.host[1].wlan[0].mac.dcf datarateSelected:vector ETV
attr interpolationmode none
attr title "datarates selected, vector"
vector 34 Scenario.host[1].wlan[0].mac packetSentToLower:vector(packetBytes) ETV
attr interpolationmode none
attr title "packets sent to lower layer, vector(packetBytes)"
vector 35 Scenario.host[1].wlan[0].mac.dcf frameSequenceActive:vector ETV
attr interpolationmode sample-hold
attr source count(frameSequenceStarted)-count(frameSequenceFinished)
attr title "frame sequence active, vector"
vector 36 Scenario.host[1].wlan[0].radio transmissionState:vector ETV
attr interpolationmode sample-hold
attr source transmissionStateChanged
attr title "Radio transmission state, vector"
vector 37 Scenario.host[1].wlan[0].mac.dcf packetSentToPeer:vector(packetBytes) ETV
attr interpolationmode none
attr title "packets sent, vector(packetBytes)"
vector 38 Scenario.host[1].wlan[0].mac.dcf packetSentToPeerMulticast:vector(packetBytes) ETV
attr interpolationmode none
attr source ieee80211Multicast(packetSentToPeer)
attr title "packets sent: multicast, vector(packetBytes)"
vector 39 Scenario.host[1].wlan[0].mac.dcf packetSentToPeerBroadcast:vector(packetBytes) ETV
attr interpolationmode none
attr source ieee80211Broadcast(packetSentToPeer)
attr title "packets sent: broadcast , vector(packetBytes)"
vector 40 Scenario.host[1].wlan[0].mac.dcf packetSentToPeerWithoutRetry:vector(packetBytes) ETV
attr interpolationmode none
attr source ieee80211NotRetry(packetSentToPeer)
attr title "packets sent: without retry, vector(packetBytes)"
vector 41 Scenario.host[1].wlan[0].mac.dcf.channelAccess.inProgressFrames queueingTime:vector ETV
attr interpolationmode none
attr source queueingTime(packetDequeued)
attr title "queueing times, vector"
vector 42 Scenario.host[2].wlan[0].mac packetReceivedFromLower:vector(packetBytes) ETV
attr interpolationmode none
attr title "packets received from lower layer, vector(packetBytes)"
vector 43 Scenario.host[2].wlan[0].mac.dcf packetReceivedFromPeer:vector(packetBytes) ETV
attr interpolationmode none
attr title "packets received, vector(packetBytes)"
vector 44 Scenario.host[2].wlan[0].mac.dcf packetReceivedFromPeerMulticast:vector(packetBytes) ETV
attr interpolationmode none
attr source ieee80211Multicast(packetReceivedFromPeer)
attr title "packets received: multicast, vector(packetBytes)"
vector 45 Scenario.host[2].wlan[0].mac.dcf packetReceivedFromPeerBroadcast:vector(packetBytes) ETV
attr interpolationmode none
attr source ieee80211Broadcast(packetReceivedFromPeer)
attr title "packets received: broadcast, vector(packetBytes)"
vector 46 Scenario.host[2].wlan[0].mac.dcf packetReceivedFromPeerWithoutRetry:vector(packetBytes) ETV
attr interpolationmode none
attr source ieee80211NotRetry(packetReceivedFromPeer)
attr title "packets received: without retry, vector(packetBytes)"
vector 47 Scenario.host[2].wlan[0].mac packetSentToUpper:vector(packetBytes) ETV
attr interpolationmode none
attr title "packets sent to upper layer, vector(packetBytes)"
vector 48 Scenario.host[0].wlan[0].mac packetReceivedFromLower:vector(packetBytes) ETV
attr interpolationmode none
attr title "packets received from lower layer, vector(packetBytes)"
vector 49 Scenario.host[0].wlan[0].mac.dcf packetReceivedFromPeer:vector(packetBytes) ETV
attr interpolationmode none
attr title "packets received, vector(packetBytes)"
vector 50 Scenario.host[0].wlan[0].mac.dcf packetReceivedFromPeerMulticast:vector(packetBytes) ETV
attr interpolationmode none
attr source ieee80211Multicast(packetReceivedFromPeer)
attr title "packets received: multicast, vector(packetBytes)"
vector 51 Scenario.host[0].wlan[0].mac.dcf packetReceivedFromPeerBroadcast:vector(packetBytes) ETV
attr interpolationmode none
attr source ieee80211Broadcast(packetReceivedFromPeer)
attr title "packets received: broadcast, vector(packetBytes)"
vector 52 Scenario.host[0].wlan[0].mac.dcf packetReceivedFromPeerWithoutRetry:vector(packetBytes) ETV
attr interpolationmode none
attr source ieee80211NotRetry(packetReceivedFromPeer)
attr title "packets received: without retry, vector(packetBytes)"
vector 53 Scenario.host[0].wlan[0].mac packetSentToUpper:vector(packetBytes) ETV
attr interpolationmode none
attr title "packets sent to upper layer, vector(packetBytes)"
vector 54 Scenario.host[0].ipv4.arp arpReplySent:vector(packetBytes) ETV
attr source arpReplySent
attr title "ARP replies sent, vector(packetBytes)"
vector 55 Scenario.host[0].wlan[0].mac packetReceivedFromUpper:vector(packetBytes) ETV
attr interpolationmode none
attr title "packets received from upper layer, vector(packetBytes)"
vector 56 Scenario.host[0].wlan[0].mac.dcf.channelAccess.pendingQueue packetPushed:vector(packetBytes) ETV
attr interpolationmode none
attr title "packet pushed, vector(packetBytes)"
vector 57 Scenario.host[0].wlan[0].mac.dcf.channelAccess.pendingQueue queueLength:vector ETV
attr interpolationmode sample-hold
attr source "count(packetPushed) - count(packetPopped) - count(packetRemoved) - count(packetDropped)"
attr title "queue length, vector"
vector 58 Scenario.host[0].wlan[0].mac.dcf.channelAccess.contention backoffPeriodGenerated:vector ETV
attr interpolationmode none
attr title "backoff periods, vector"
vector 59 Scenario.host[0].wlan[0].mac.dcf.channelAccess.contention backoffActive:vector ETV
attr interpolationmode sample-hold
attr source count(backoffStarted)-count(backoffStopped)
attr title "backoff active, vector"
vector 60 Scenario.host[0].wlan[0].mac.dcf.channelAccess.pendingQueue packetPopped:vector(packetBytes) ETV
attr interpolationmode none
attr title "packet popped, vector(packetBytes)"
vector 61 Scenario.host[0].wlan[0].mac.dcf.channelAccess.pendingQueue queueingTime:vector ETV
attr interpolationmode none
attr source queueingTime(packetPopped)
attr title "queueing times, vector"
attr unit s
vector 62 Scenario.host[0].wlan[0].mac.dcf.channelAccess.inProgressFrames queueLength:vector ETV
attr interpolationmode sample-hold
attr source "count(packetEnqueued) - count(packetDequeued)"
attr title "queue length, vector"
vector 63 Scenario.host[0].wlan[0].mac.dcf datarateSelected:vector ETV
attr interpolationmode none
attr title "datarates selected, vector"
vector 64 Scenario.host[0].wlan[0].mac packetSentToLower:vector(packetBytes) ETV
attr interpolationmode none
attr title "packets sent to lower layer, vector(packetBytes)"
vector 65 Scenario.host[0].wlan[0].mac.dcf frameSequenceActive:vector ETV
attr interpolationmode sample-hold
attr source count(frameSequenceStarted)-count(frameSequenceFinished)
attr title "frame sequence active, vector"
vector 66 Scenario.host[0].wlan[0].radio transmissionState:vector ETV
attr interpolationmode sample-hold
attr source transmissionStateChanged
attr title "Radio transmission state, vector"
vector 67 Scenario.host[0].wlan[0].mac.dcf packetSentToPeer:vector(packetBytes) ETV
attr interpolationmode none
attr title "packets sent, vector(packetBytes)"
vector 68 Scenario.host[0].wlan[0].mac.dcf packetSentToPeerUnicast:vector(packetBytes) ETV
attr interpolationmode none
attr source ieee80211Unicast(packetSentToPeer)
attr title "packets sent: unicast, vector(packetBytes)"
vector 69 Scenario.host[0].wlan[0].mac.dcf packetSentToPeerWithoutRetry:vector(packetBytes) ETV
attr interpolationmode none
attr source ieee80211NotRetry(packetSentToPeer)
attr title "packets sent: without retry, vector(packetBytes)"
vector 70 Scenario.host[0].wlan[0].mac.rx nav:vector ETV
attr interpolationmode linear
attr source navChanged
attr title "network allocation vector, vector"
vector 71 Scenario.host[1].wlan[0].mac packetReceivedFromLower:vector(packetBytes) ETV
attr interpolationmode none
attr title "packets received from lower layer, vector(packetBytes)"
vector 72 Scenario.host[1].wlan[0].mac.dcf packetReceivedFromPeer:vector(packetBytes) ETV
attr interpolationmode none
attr title "packets received, vector(packetBytes)"
vector 73 Scenario.host[1].wlan[0].mac.dcf packetReceivedFromPeerUnicast:vector(packetBytes) ETV
attr interpolationmode none
attr source ieee80211Unicast(packetReceivedFromPeer)
attr title "packets received: unicast, vector(packetBytes)"
vector 74 Scenario.host[1].wlan[0].mac.dcf packetReceivedFromPeerWithoutRetry:vector(packetBytes) ETV
attr interpolationmode none
attr source ieee80211NotRetry(packetReceivedFromPeer)
attr title "packets received: without retry, vector(packetBytes)"
vector 75 Scenario.host[1].wlan[0].mac packetSentToUpper:vector(packetBytes) ETV
attr interpolationmode none
attr title "packets sent to upper layer, vector(packetBytes)"
vector 76 Scenario.host[1].wlan[0].mac.dcf packetSentToPeerUnicast:vector(packetBytes) ETV
attr interpolationmode none
attr source ieee80211Unicast(packetSentToPeer)
attr title "packets sent: unicast, vector(packetBytes)"
vector 77 Scenario.host[2].wlan[0].mac.dcf packetDrop:vector(packetBytes) ETV
attr interpolationmode none
attr source packetDropped
attr title "packet drops, vector(packetBytes)"
vector 78 Scenario.host[2].wlan[0].mac.dcf packetDropNotAddressedToUs:vector(packetBytes) ETV
attr interpolationmode none
attr source packetDropReasonIsNotAddressedToUs(packetDropped)
attr title "packet drops: not addressed to us, vector(packetBytes)"
vector 79 Scenario.host[2].wlan[0].mac packetDrop:vector(packetBytes) ETV
attr interpolationmode none
attr source packetDropped
attr title "packet drops, vector(packetBytes)"
vector 80 Scenario.host[2].wlan[0].mac packetDropNotAddressedToUs:vector(packetBytes) ETV
attr interpolationmode none
attr source packetDropReasonIsNotAddressedToUs(packetDropped)
attr title "packet drops: not addressed to us, vector(packetBytes)"
vector 81 Scenario.host[0].wlan[0].mac.dcf packetReceivedFromPeerUnicast:vector(packetBytes) ETV
attr interpolationmode none
attr source ieee80211Unicast(packetReceivedFromPeer)
attr title "packets received: unicast, vector(packetBytes)"
vector 82 Scenario.host[0].wlan[0].mac.dcf.channelAccess.inProgressFrames queueingTime:vector ETV
attr interpolationmode none
attr source queueingTime(packetDequeued)
attr title "queueing times, vector"
vector 83 Scenario.host[1].wlan[0].mac.rx nav:vector ETV
attr interpolationmode linear
attr source navChanged
attr title "network allocation vector, vector"
vector 84 Scenario.host[2].wlan[0].mac.rx nav:vector ETV
attr interpolationmode linear
attr source navChanged
attr title "network allocation vector, vector"
vector 85 Scenario.host[2].app[0] packetSent:vector(packetBytes) ETV
attr interpolationmode none
attr source packetSent
attr title "packets sent, vector(packetBytes)"
vector 86 Scenario.host[2].udp packetSent:vector(packetBytes) ETV
attr interpolationmode none
attr source packetSent
attr title "packets sent, vector(packetBytes)"
vector 87 Scenario.host[2].ipv4.arp arpRequestSent:vector(packetBytes) ETV
attr source arpRequestSent
attr title "ARP request sent, vector(packetBytes)"
vector 88 Scenario.host[2].wlan[0].mac packetReceivedFromUpper:vector(packetBytes) ETV
attr interpolationmode none
attr title "packets received from upper layer, vector(packetBytes)"
vector 89 Scenario.host[2].wlan[0].mac.dcf.channelAccess.pendingQueue packetPushed:vector(packetBytes) ETV
attr interpolationmode none
attr title "packet pushed, vector(packetBytes)"
vector 90 Scenario.host[2].wlan[0].mac.dcf.channelAccess.pendingQueue queueLength:vector ETV
attr interpolationmode sample-hold
attr source "count(packetPushed) - count(packetPopped) - count(packetRemoved) - count(packetDropped)"
attr title "queue length, vector"
vector 91 Scenario.host[2].wlan[0].mac.dcf.channelAccess.contention backoffPeriodGenerated:vector ETV
attr interpolationmode none
attr title "backoff periods, vector"
vector 92 Scenario.host[2].wlan[0].mac.dcf.channelAccess.contention backoffActive:vector ETV
attr interpolationmode sample-hold
attr source count(backoffStarted)-count(backoffStopped)
attr title "backoff active, vector"
vector 93 Scenario.host[2].wlan[0].mac.dcf.channelAccess.pendingQueue packetPopped:vector(packetBytes) ETV
attr interpolationmode none
attr title "packet popped, vector(packetBytes)"
vector 94 Scenario.host[2].wlan[0].mac.dcf.channelAccess.pendingQueue queueingTime:vector ETV
attr interpolationmode none
attr source queueingTime(packetPopped)
attr title "queueing times, vector"
attr unit s
vector 95 Scenario.host[2].wlan[0].mac.dcf.channelAccess.inProgressFrames queueLength:vector ETV
attr interpolationmode sample-hold
attr source "count(packetEnqueued) - count(packetDequeued)"
attr title "queue length, vector"
vector 96 Scenario.host[2].wlan[0].mac.dcf datarateSelected:vector ETV
attr interpolationmode none
attr title "datarates selected, vector"
vector 97 Scenario.host[2].wlan[0].mac packetSentToLower:vector(packetBytes) ETV
attr interpolationmode none
attr title "packets sent to lower layer, vector(packetBytes)"
vector 98 Scenario.host[2].wlan[0].mac.dcf frameSequenceActive:vector ETV
attr interpolationmode sample-hold
attr source count(frameSequenceStarted)-count(frameSequenceFinished)
attr title "frame sequence active, vector"
vector 99 Scenario.host[2].wlan[0].radio transmissionState:vector ETV
attr interpolationmode sample-hold
attr source transmissionStateChanged
attr title "Radio transmission state, vector"
vector 100 Scenario.host[2].wlan[0].mac.dcf packetSentToPeer:vector(packetBytes) ETV
attr interpolationmode none
attr title "packets sent, vector(packetBytes)"
vector 101 Scenario.host[2].wlan[0].mac.dcf packetSentToPeerMulticast:vector(packetBytes) ETV
attr interpolationmode none
attr source ieee80211Multicast(packetSentToPeer)
attr title "packets sent: multicast, vector(packetBytes)"
vector 102 Scenario.host[2].wlan[0].mac.dcf packetSentToPeerBroadcast:vector(packetBytes) ETV
attr interpolationmode none
attr source ieee80211Broadcast(packetSentToPeer)
attr title "packets sent: broadcast , vector(packetBytes)"
vector 103 Scenario.host[2].wlan[0].mac.dcf packetSentToPeerWithoutRetry:vector(packetBytes) ETV
attr interpolationmode none
attr source ieee80211NotRetry(packetSentToPeer)
attr title "packets sent: without retry, vector(packetBytes)"
vector 104 Scenario.host[2].wlan[0].mac.dcf.channelAccess.inProgressFrames queueingTime:vector ETV
attr interpolationmode none
attr source queueingTime(packetDequeued)
attr title "queueing times, vector"
vector 105 Scenario.host[1].wlan[0].mac.dcf packetReceivedFromPeerMulticast:vector(packetBytes) ETV
attr interpolationmode none
attr source ieee80211Multicast(packetReceivedFromPeer)
attr title "packets received: multicast, vector(packetBytes)"
vector 106 Scenario.host[1].wlan[0].mac.dcf packetReceivedFromPeerBroadcast:vector(packetBytes) ETV
attr interpolationmode none
attr source ieee80211Broadcast(packetReceivedFromPeer)
attr title "packets received: broadcast, vector(packetBytes)"
vector 107 Scenario.host[1].wlan[0].mac.dcf packetDrop:vector(packetBytes) ETV
attr interpolationmode none
attr source packetDropped
attr title "packet drops, vector(packetBytes)"
vector 108 Scenario.host[1].wlan[0].mac.dcf packetDropNotAddressedToUs:vector(packetBytes) ETV
attr interpolationmode none
attr source packetDropReasonIsNotAddressedToUs(packetDropped)
attr title "packet drops: not addressed to us, vector(packetBytes)"
vector 109 Scenario.host[1].wlan[0].mac packetDrop:vector(packetBytes) ETV
attr interpolationmode none
attr source packetDropped
attr title "packet drops, vector(packetBytes)"
vector 110 Scenario.host[1].wlan[0].mac packetDropNotAddressedToUs:vector(packetBytes) ETV
attr interpolationmode none
attr source packetDropReasonIsNotAddressedToUs(packetDropped)
attr title "packet drops: not addressed to us, vector(packetBytes)"
vector 111 Scenario.host[2].wlan[0].mac.dcf packetReceivedFromPeerUnicast:vector(packetBytes) ETV
attr interpolationmode none
attr source ieee80211Unicast(packetReceivedFromPeer)
attr title "packets received: unicast, vector(packetBytes)"
vector 112 Scenario.host[2].wlan[0].mac.dcf packetSentToPeerUnicast:vector(packetBytes) ETV
attr interpolationmode none
attr source ieee80211Unicast(packetSentToPeer)
attr title "packets sent: unicast, vector(packetBytes)"
vector 113 Scenario.host[2].wlan[0].mac.dcf packetSentToPeerWithRetry:vector(packetBytes) ETV
attr interpolationmode none
attr source ieee80211Retry(packetSentToPeer)
attr title "packets sent: with retry, vector(packetBytes)"
vector 114 Scenario.host[2].wlan[0].mac.dcf packetDropRetryLimitReached:vector(packetBytes) ETV
attr interpolationmode none
attr source packetDropReasonIsRetryLimitReached(packetDropped)
attr title "packet drops: retry limit reached, vector(packetBytes)"
vector 115 Scenario.host[2].wlan[0].mac packetDropRetryLimitReached:vector(packetBytes) ETV
attr interpolationmode none
attr source packetDropReasonIsRetryLimitReached(packetDropped)
attr title "packet drops: retry limit reached, vector(packetBytes)"
vector 116 Scenario.host[1].wlan[0].mac.dcf packetSentToPeerWithRetry:vector(packetBytes) ETV
attr interpolationmode none
attr source ieee80211Retry(packetSentToPeer)
attr title "packets sent: with retry, vector(packetBytes)"
vector 117 Scenario.host[0].wlan[0].mac.dcf packetReceivedFromPeerWithRetry:vector(packetBytes) ETV
attr interpolationmode none
attr source ieee80211Retry(packetReceivedFromPeer)
attr title "packets received: with retry, vector(packetBytes)"
vector 118 Scenario.host[1].wlan[0].mac.dcf packetDropRetryLimitReached:vector(packetBytes) ETV
attr interpolationmode none
attr source packetDropReasonIsRetryLimitReached(packetDropped)
attr title "packet drops: retry limit reached, vector(packetBytes)"
vector 119 Scenario.host[1].wlan[0].mac packetDropRetryLimitReached:vector(packetBytes) ETV
attr interpolationmode none
attr source packetDropReasonIsRetryLimitReached(packetDropped)
attr title "packet drops: retry limit reached, vector(packetBytes)"
vector 120 Scenario.host[2].ipv4.ip packetDropAddressResolutionFailed:vector(packetBytes) ETV
attr interpolationmode none
attr source packetDropReasonIsAddressResolutionFailed(packetDropped)
attr title "packet drop: address resolution failed, vector(packetBytes)"
vector 121 Scenario.host[1].ipv4.ip packetDropAddressResolutionFailed:vector(packetBytes) ETV
attr interpolationmode none
attr source packetDropReasonIsAddressResolutionFailed(packetDropped)
attr title "packet drop: address resolution failed, vector(packetBytes)"
19	681	0.1	0
19	681	0.2	0
19	681	0.3	0
19	681	0.4	0
19	681	0.5	0
19	681	0.6	0
19	681	0.7	0
19	681	0.8	0
19	681	0.9	0
19	681	1	0
19	681	1.1	0
19	681	1.2	0
19	681	1.3	0
19	681	1.4	0
19	681	1.5	0
19	681	1.6	0
19	681	1.7	0
19	681	1.8	0
19	681	1.9	0
19	681	2	0
19	681	2.1	0
19	681	2.2	0
19	681	2.3	0
19	681	2.4	0
19	681	2.5	0
19	681	2.6	0
19	681	2.7	0
19	681	2.8	0
19	681	2.9	0
19	681	3	0
19	681	3.1	0
19	681	3.2	0
19	681	3.3	0
19	681	3.4	0
19	681	3.5	0
19	681	3.6	0
19	681	3.7	0
19	681	3.8	0
19	681	3.9	0
19	681	4	0
19	681	4.1	0
19	681	4.2	0
19	681	4.3	0
19	681	4.4	0
19	681	4.5	0
19	681	4.6	0
19	681	4.7	0
19	681	4.8	0
19	681	4.9	0
19	681	5	0
19	681	5.1	0
19	681	5.2	0
19	681	5.3	0
19	681	5.4	0
19	681	5.5	0
19	681	5.6	0
19	681	5.7	0
19	681	5.8	0
19	681	5.9	0
19	681	6	0
19	681	6.1	0
19	681	6.2	0
19	681	6.3	0
19	681	6.4	0
19	681	6.5	0
19	681	6.6	0
19	681	6.7	0
19	681	6.8	0
19	681	6.9	0
19	681	7	0
19	681	7.1	0
19	681	7.2	0
19	681	7.3	0
19	681	7.4	0
19	681	7.5	0
19	681	7.6	0
19	681	7.7	0
19	681	7.8	0
19	681	7.9	0
19	681	8	0
19	681	8.1	0
19	681	8.2	0
19	681	8.3	0
19	681	8.4	0
19	681	8.5	0
19	681	8.6	0
19	681	8.7	0
19	681	8.8	0
19	681	8.9	0
19	681	9	0
19	681	9.1	0
19	681	9.2	0
19	681	9.3	0
19	681	9.4	0
19	681	9.5	0
19	681	9.6	0
19	681	9.7	0
19	681	9.8	0
19	681	9.9	0
19	681	10	0
19	681	10.1	0
19	681	10.2	0
19	681	10.3	0
19	681	10.4	0
19	681	10.5	0
19	681	10.6	0
19	681	10.7	0
19	681	10.8	0
19	681	10.9	0
19	681	11	0
19	681	11.1	0
19	681	11.2	0
19	681	11.3	0
19	681	11.4	0
19	681	11.5	0
19	681	11.6	0
19	681	11.7	0
19	681	11.8	0
19	681	11.9	0
19	681	12	0
19	681	12.1	0
19	681	12.2	0
19	681	12.3	0
19	681	12.4	0
19	681	12.5	0
19	681	12.6	0
19	681	12.7	0
19	681	12.8	0
19	681	12.9	0
19	681	13	0
19	681	13.1	0
19	681	13.2	0
19	681	13.3	0
19	681	13.4	0
19	681	13.5	0
19	681	13.6	0
19	681	13.7	0
19	681	13.8	0
19	681	13.9	0
19	681	14	0
19	681	14.1	0
19	681	14.2	0
19	681	14.3	0
19	681	14.4	0
19	681	14.5	0
19	681	14.6	0
19	681	14.7	0
19	681	14.8	0
19	681	14.9	0
19	681	15	0
19	681	15.1	0
19	681	15.2	0
19	681	15.3	0
19	681	15.4	0
19	681	15.5	0
19	681	15.6	0
19	681	15.7	0
19	681	15.8	0
19	681	15.9	0
19	681	16	0
19	681	16.1	0
19	681	16.2	0
19	681	16.3	0
19	681	16.4	0
19	681	16.5	0
19	681	16.6	0
19	681	16.7	0
19	681	16.8	0
19	681	16.9	0
19	681	17	0
19	681	17.1	0
19	681	17.2	0
19	681	17.3	0
19	681	17.4	0
19	681	17.5	0
19	681	17.6	0
19	681	17.7	0
19	681	17.8	0
19	681	17.9	0
19	681	18	0
19	681	18.1	0
19	681	18.2	0
19	681	18.3	0
19	681	18.4	0
19	681	18.5	0
19	681	18.6	0
19	681	18.7	0
19	681	18.8	0
19	681	18.9	0
19	681	19	0
19	681	19.1	0
19	681	19.2	0
19	681	19.3	0
19	681	19.4	0
19	681	19.5	0
19	681	19.6	0
19	681	19.7	0
19	681	19.8	0
19	681	19.9	0
19	681	20	0
19	681	20.1	0
19	681	20.2	0
19	681	20.3	0
19	681	20.4	0
19	681	20.5	0
19	681	20.6	0
19	681	20.7	0
19	681	20.8	0
19	681	20.9	0
19	681	21	0
19	681	21.1	0
19	681	21.2	0
19	681	21.3	0
19	681	21.4	0
19	681	21.5	0
19	681	21.6	0
19	681	21.7	0
19	681	21.8	0
19	681	21.9	0
19	681	22	0
19	763	22.1	8000
19	763	22.2	0
19	763	22.3	0
19	763	22.4	0
19	1016	22.5	8000
19	1016	22.6	0
19	1016	22.7	0
19	1016	22.8	0
19	1016	22.9	0
19	1016	23	0
19	1016	23.1	0
19	1016	23.2	0
19	1016	23.3	0
19	1016	23.4	0
19	1016	23.5	0
19	1016	23.6	0
19	1016	23.7	0
19	1016	23.8	0
19	1016	23.9	0
19	1016	24	0
19	1016	24.1	0
19	1016	24.2	0
19	1016	24.3	0
19	1016	24.4	0
19	1016	24.5	0
19	1016	24.6	0
19	1016	24.7	0
19	1016	24.8	0
19	1016	24.9	0
19	1016	25	0
19	1016	25.1	0
19	1016	25.2	0
19	1016	25.3	0
19	1016	25.4	0
19	1016	25.5	0
19	1016	25.6	0
19	1016	25.7	0
19	1016	25.8	0
19	1016	25.9	0
19	1016	26	0
19	1016	26.1	0
19	1016	26.2	0
19	1016	26.3	0
19	1016	26.4	0
19	1016	26.5	0
19	1016	26.6	0
19	1016	26.7	0
19	1016	26.8	0
19	1016	26.9	0
19	1016	27	0
19	1016	27.1	0
19	1016	27.2	0
19	1016	27.3	0
19	1016	27.4	0
19	1016	27.5	0
19	1016	27.6	0
19	1016	27.7	0
19	1016	27.8	0
19	1354	27.9	8000
19	1354	28	0
19	1354	28.1	0
19	1354	28.2	0
19	1354	28.3	0
19	1354	28.4	0
19	1354	28.5	0
19	1354	28.6	0
19	1354	28.7	0
19	1354	28.8	0
19	1354	28.9	0
19	1354	29	0
19	1354	29.1	0
19	1354	29.2	0
19	1354	29.3	0
19	1354	29.4	0
19	1354	29.5	0
19	1354	29.6	0
19	1354	29.7	0
19	1354	29.8	0
19	1354	29.9	0
19	1354	30	0
19	1354	30.1	0
19	1354	30.2	0
19	1354	30.3	0
19	1354	30.4	0
19	1354	30.5	0
19	1354	30.6	0
19	1354	30.7	0
19	1354	30.8	0
19	1354	30.9	0
19	1354	31	0
19	1354	31.1	0
19	1354	31.2	0
19	1354	31.3	0
19	1354	31.4	0
19	1354	31.5	0
19	1354	31.6	0
19	1354	31.7	0
19	1354	31.8	0
19	1354	31.9	0
19	1354	32	0
19	1354	32.1	0
19	1354	32.2	0
19	1354	32.3	0
19	1354	32.4	0
19	1354	32.5	0
19	1354	32.6	0
19	1354	32.7	0
19	1354	32.8	0
19	1354	32.9	0
19	1354	33	0
19	1354	33.1	0
19	1354	33.2	0
19	1354	33.3	0
19	1354	33.4	0
19	1354	33.5	0
19	1354	33.6	0
19	1354	33.7	0
19	1354	33.8	0
19	1354	33.9	0
19	1354	34	0
19	1354	34.1	0
19	1354	34.2	0
19	1354	34.3	0
19	1354	34.4	0
19	1354	34.5	0
19	1354	34.6	0
19	1354	34.7	0
19	1354	34.8	0
19	1354	34.9	0
19	1354	35	0
19	1354	35.1	0
19	1354	35.2	0
19	1354	35.3	0
19	1354	35.4	0
19	1354	35.5	0
19	1354	35.6	0
19	1354	35.7	0
19	1354	35.8	0
19	1354	35.9	0
19	1354	36	0
19	1354	36.1	0
19	1354	36.2	0
19	1354	36.3	0
19	1354	36.4	0
19	1354	36.5	0
19	1354	36.6	0
19	1354	36.7	0
19	1354	36.8	0
19	1354	36.9	0
19	1354	37	0
19	1354	37.1	0
19	1354	37.2	0
19	1354	37.3	0
19	1354	37.4	0
19	1354	37.5	0
19	1354	37.6	0
19	1354	37.7	0
19	1354	37.8	0
19	1354	37.9	0
19	1354	38	0
19	1742	38.1	8000
19	1742	38.2	0
19	1742	38.3	0
19	1742	38.4	0
19	1742	38.5	0
19	1742	38.6	0
19	1742	38.7	0
19	1742	38.8	0
19	1742	38.9	0
19	1742	39	0
19	1742	39.1	0
19	1742	39.2	0
19	1742	39.3	0
19	1742	39.4	0
19	1742	39.5	0
19	1742	39.6	0
19	1742	39.7	0
19	1742	39.8	0
19	1742	39.9	0
19	1742	40	0
19	1742	40.1	0
19	1742	40.2	0
19	1742	40.3	0
19	1742	40.4	0
19	1742	40.5	0
19	1742	40.6	0
19	1742	40.7	0
19	1742	40.8	0
19	1742	40.9	0
19	1742	41	0
19	1742	41.1	0
19	1742	41.2	0
19	1742	41.3	0
19	1742	41.4	0
19	1742	41.5	0
19	1742	41.6	0
19	1742	41.7	0
19	1742	41.8	0
19	1742	41.9	0
19	1742	42	0
19	1742	42.1	0
19	1742	42.2	0
19	1742	42.3	0
19	1742	42.4	0
19	1742	42.5	0
19	1742	42.6	0
19	1742	42.7	0
19	1742	42.8	0
19	1742	42.9	0
19	1742	43	0
19	1742	43.1	0
19	1742	43.2	0
19	1742	43.3	0
19	1742	43.4	0
19	1742	43.5	0
19	1742	43.6	0
19	1742	43.7	0
19	1742	43.8	0
19	1742	43.9	0
19	1742	44	0
19	1742	44.1	0
19	2341	44.2	8000
19	2341	44.3	0
19	2341	44.4	0
19	2341	44.5	0
19	2341	44.6	0
19	2341	44.7	0
19	2341	44.8	0
19	2341	44.9	0
19	2341	45	0
19	2341	45.1	0
19	2341	45.2	0
19	2341	45.3	0
19	2341	45.4	0
19	2341	45.5	0
19	2341	45.6	0
19	2341	45.7	0
19	2341	45.8	0
19	2341	45.9	0
19	2341	46	0
19	2341	46.1	0
19	2341	46.2	0
19	2341	46.3	0
19	2341	46.4	0
19	2341	46.5	0
19	2341	46.6	0
19	2341	46.7	0
19	2341	46.8	0
19	2341	46.9	0
19	2341	47	0
19	2341	47.1	0
19	2341	47.2	0
19	2341	47.3	0
19	2341	47.4	0
19	2341	47.5	0
19	2341	47.6	0
19	2341	47.7	0
19	2341	47.8	0
19	2341	47.9	0
19	2341	48	0
19	2341	48.1	0
19	2341	48.2	0
19	2341	48.3	0
19	2341	48.4	0
19	2341	48.5	0
19	2341	48.6	0
19	2341	48.7	0
19	2341	48.8	0
19	2341	48.9	0
19	2341	49	0
19	2341	49.1	0
19	2341	49.2	0
19	2341	49.3	0
19	2341	49.4	0
19	2341	49.5	0
19	2341	49.6	0
19	2341	49.7	0
19	2341	49.8	0
19	2341	49.9	0
19	2341	50	0
19	2341	50.1	0
19	2341	50.2	0
19	2341	50.3	0
19	2341	50.4	0
19	2341	50.5	0
19	2341	50.6	0
19	2341	50.7	0
19	2341	50.8	0
19	2341	50.9	0
19	2341	51	0
19	2341	51.1	0
19	2341	51.2	0
19	2341	51.3	0
19	2341	51.4	0
19	2341	51.5	0
19	2341	51.6	0
19	2341	51.7	0
19	2341	51.8	0
19	2341	51.9	0
19	2341	52	0
19	2341	52.1	0
19	2341	52.2	0
19	2341	52.3	0
19	2341	52.4	0
19	2341	52.5	0
19	2341	52.6	0
19	2341	52.7	0
19	2341	52.8	0
19	2341	52.9	0
19	2341	53	0
19	2341	53.1	0
19	2341	53.2	0
19	2341	53.3	0
19	2341	53.4	0
19	2341	53.5	0
19	2341	53.6	0
19	2341	53.7	0
19	2341	53.8	0
19	2341	53.9	0
19	2341	54	0
19	2341	54.1	0
19	2341	54.2	0
19	2341	54.3	0
19	2341	54.4	0
19	2341	54.5	0
19	2341	54.6	0
19	2341	54.7	0
19	2341	54.8	0
19	2341	54.9	0
19	2341	55	0
19	2341	55.1	0
19	2341	55.2	0
19	2341	55.3	0
19	2341	55.4	0
19	2341	55.5	0
19	2341	55.6	0
19	2341	55.7	0
19	2341	55.8	0
19	2341	55.9	0
19	2341	56	0
19	2341	56.1	0
19	2341	56.2	0
19	2341	56.3	0
19	2341	56.4	0
19	2341	56.5	0
19	2341	56.6	0
19	2341	56.7	0
19	2341	56.8	0
19	2341	56.9	0
19	2341	57	0
19	2341	57.1	0
19	2341	57.2	0
19	2341	57.3	0
19	2341	57.4	0
19	2341	57.5	0
19	2341	57.6	0
19	2341	57.7	0
19	2341	57.8	0
19	2341	57.9	0
19	2341	58	0
19	2341	58.1	0
19	2341	58.2	0
19	2341	58.3	0
19	2341	58.4	0
19	2341	58.5	0
19	2341	58.6	0
19	2341	58.7	0
19	2341	58.8	0
19	2341	58.9	0
19	2341	59	0
19	2341	59.1	0
19	2341	59.2	0
19	2341	59.3	0
19	2341	59.4	0
19	2341	59.5	0
19	2341	59.6	0
19	2341	59.7	0
19	2341	59.8	0
19	2341	59.9	0
19	2341	60	0
19	2341	60.1	0
19	2341	60.2	0
19	2341	60.3	0
19	2341	60.4	0
19	2341	60.5	0
19	2341	60.6	0
19	2341	60.7	0
19	2341	60.8	0
19	2341	60.9	0
19	2341	61	0
19	2341	61.1	0
19	2341	61.2	0
19	2341	61.3	0
19	2341	61.4	0
19	2341	61.5	0
19	2341	61.6	0
19	2341	61.7	0
19	2341	61.8	0
19	2341	61.9	0
19	2341	62	0
19	2341	62.1	0
19	2341	62.2	0
19	2341	62.3	0
19	2341	62.4	0
19	2341	62.5	0
19	2341	62.6	0
19	3203	62.7	8000
19	3203	62.8	0
19	3203	62.9	0
19	3203	63	0
19	3203	63.1	0
19	3203	63.2	0
19	3203	63.3	0
19	3203	63.4	0
19	3203	63.5	0
19	3203	63.6	0
19	3203	63.7	0
19	3203	63.8	0
19	3203	63.9	0
19	3203	64	0
19	3203	64.1	0
19	3203	64.2	0
19	3203	64.3	0
19	3203	64.4	0
19	3203	64.5	0
19	3203	64.6	0
19	3203	64.7	0
19	3203	64.8	0
19	3203	64.9	0
19	3203	65	0
19	3203	65.1	0
19	3203	65.2	0
19	3203	65.3	0
19	3203	65.4	0
19	3203	65.5	0
19	3203	65.6	0
19	3203	65.7	0
19	3203	65.8	0
19	3203	65.9	0
19	3203	66	0
19	3203	66.1	0
19	3203	66.2	0
19	3203	66.3	0
19	3203	66.4	0
19	3203	66.5	0
19	3203	66.6	0
19	3203	66.7	0
19	3203	66.8	0
19	3203	66.9	0
19	3203	67	0
19	3203	67.1	0
19	3203	67.2	0
19	3203	67.3	0
19	3203	67.4	0
19	3203	67.5	0
19	3203	67.6	0
19	3203	67.7	0
19	3203	67.8	0
19	3203	67.9	0
19	3203	68	0
19	3203	68.1	0
19	3203	68.2	0
19	3203	68.3	0
19	3203	68.4	0
19	3203	68.5	0
19	3203	68.6	0
19	3203	68.7	0
19	3203	68.8	0
19	3203	68.9	0
19	3203	69	0
19	3203	69.1	0
19	3203	69.2	0
19	3203	69.3	0
19	3203	69.4	0
19	3203	69.5	0
19	3203	69.6	0
19	3203	69.7	0
19	3203	69.8	0
19	3203	69.9	0
19	3203	70	0
19	3203	70.1	0
19	3203	70.2	0
19	3203	70.3	0
19	3203	70.4	0
19	3203	70.5	0
19	3203	70.6	0
19	3203	70.7	0
19	3203	70.8	0
19	3203	70.9	0
19	3203	71	0
19	3203	71.1	0
19	3203	71.2	0
19	3203	71.3	0
19	3203	71.4	0
19	3203	71.5	0
19	3203	71.6	0
19	3203	71.7	0
19	3203	71.8	0
19	3203	71.9	0
19	3203	72	0
19	3203	72.1	0
19	3203	72.2	0
19	3203	72.3	0
19	3203	72.4	0
19	3203	72.5	0
19	3203	72.6	0
19	3203	72.7	0
19	3203	72.8	0
19	3203	72.9	0
19	3203	73	0
19	3203	73.1	0
19	3203	73.2	0
19	3203	73.3	0
19	3203	73.4	0
19	3203	73.5	0
19	3203	73.6	0
19	3203	73.7	0
19	3203	73.8	0
19	3203	73.9	0
19	3203	74	0
19	3203	74.1	0
19	3203	74.2	0
19	3203	74.3	0
19	3203	74.4	0
19	3203	74.5	0
19	3203	74.6	0
19	3203	74.7	0
19	3203	74.8	0
19	3203	74.9	0
19	3203	75	0
19	3203	75.1	0
19	3203	75.2	0
19	3203	75.3	0
19	3203	75.4	0
19	3203	75.5	0
19	3203	75.6	0
19	3203	75.7	0
19	3203	75.8	0
19	3203	75.9	0
19	3203	76	0
19	3203	76.1	0
19	3203	76.2	0
19	3203	76.3	0
19	3203	76.4	0
19	3203	76.5	0
19	3203	76.6	0
19	3203	76.7	0
19	3203	76.8	0
19	3203	76.9	0
19	3203	77	0
19	3203	77.1	0
19	3203	77.2	0
19	3203	77.3	0
19	3203	77.4	0
19	3203	77.5	0
19	3203	77.6	0
19	3203	77.7	0
19	3203	77.8	0
19	3203	77.9	0
19	3203	78	0
19	3203	78.1	0
19	3203	78.2	0
19	3203	78.3	0
19	3203	78.4	0
19	3203	78.5	0
19	3203	78.6	0
19	3203	78.7	0
19	3203	78.8	0
19	3203	78.9	0
19	3203	79	0
19	3203	79.1	0
19	3203	79.2	0
19	3203	79.3	0
19	3203	79.4	0
19	3203	79.5	0
19	3203	79.6	0
19	3203	79.7	0
19	3203	79.8	0
19	3203	79.9	0
19	3203	80	0
19	3203	80.1	0
19	3203	80.2	0
19	3203	80.3	0
19	3203	80.4	0
19	3203	80.5	0
19	3203	80.6	0
19	3203	80.7	0
19	3203	80.8	0
19	3203	80.9	0
19	3203	81	0
19	3203	81.1	0
19	3203	81.2	0
19	3203	81.3	0
19	3203	81.4	0
19	3203	81.5	0
19	3203	81.6	0
19	3203	81.7	0
19	3203	81.8	0
19	3203	81.9	0
19	3203	82	0
19	3203	82.1	0
19	3203	82.2	0
19	3203	82.3	0
19	3203	82.4	0
19	3203	82.5	0
19	3203	82.6	0
19	3203	82.7	0
19	3203	82.8	0
19	3203	82.9	0
19	3203	83	0
19	3203	83.1	0
19	3203	83.2	0
19	3263	83.3	8000
19	3263	83.4	0
19	3263	83.5	0
19	3263	83.6	0
19	3263	83.7	0
19	3263	83.8	0
19	3263	83.9	0
19	3263	84	0
19	3263	84.1	0
19	3263	84.2	0
19	3263	84.3	0
19	3263	84.4	0
19	3896	84.5	8000
19	3896	84.6	0
19	3896	84.7	0
19	3896	84.8	0
19	3896	84.9	0
19	3896	85	0
19	3896	85.1	0
19	3896	85.2	0
19	3896	85.3	0
19	3896	85.4	0
19	3896	85.5	0
19	3896	85.6	0
19	3896	85.7	0
19	3896	85.8	0
19	3896	85.9	0
19	3896	86	0
19	3896	86.1	0
19	3896	86.2	0
19	3896	86.3	0
19	3896	86.4	0
19	3896	86.5	0
19	3896	86.6	0
19	3896	86.7	0
19	3896	86.8	0
19	3896	86.9	0
19	3896	87	0
19	3896	87.1	0
19	3896	87.2	0
19	3896	87.3	0
19	3896	87.4	0
19	3896	87.5	0
19	3896	87.6	0
19	3896	87.7	0
19	3896	87.8	0
19	3896	87.9	0
19	3896	88	0
19	3896	88.1	0
19	3896	88.2	0
19	3896	88.3	0
19	3896	88.4	0
19	3896	88.5	0
19	3896	88.6	0
19	3896	88.7	0
19	3896	88.8	0
19	3896	88.9	0
19	3896	89	0
19	3896	89.1	0
19	3896	89.2	0
19	3896	89.3	0
19	3896	89.4	0
19	3896	89.5	0
19	3896	89.6	0
19	3896	89.7	0
19	3896	89.8	0
19	3896	89.9	0
19	3896	90	0
19	3896	90.1	0
19	3896	90.2	0
19	3896	90.3	0
19	3896	90.4	0
19	3896	90.5	0
19	3896	90.6	0
19	3896	90.7	0
19	3896	90.8	0
19	3896	90.9	0
19	3896	91	0
19	3896	91.1	0
19	3896	91.2	0
19	3896	91.3	0
19	3896	91.4	0
19	3896	91.5	0
19	3896	91.6	0
19	3896	91.7	0
19	3896	91.8	0
19	3896	91.9	0
19	3896	92	0
19	3896	92.1	0
19	3896	92.2	0
19	3896	92.3	0
19	3896	92.4	0
19	3896	92.5	0
19	3896	92.6	0
19	3896	92.7	0
19	3896	92.8	0
19	3896	92.9	0
19	3896	93	0
19	3896	93.1	0
19	3896	93.2	0
19	3896	93.3	0
19	3896	93.4	0
19	3896	93.5	0
19	3896	93.6	0
19	3896	93.7	0
19	3896	93.8	0
19	3896	93.9	0
19	3896	94	0
19	3896	94.1	0
19	3896	94.2	0
19	3896	94.3	0
19	3896	94.4	0
19	3896	94.5	0
19	3896	94.6	0
19	3896	94.7	0
19	3896	94.8	0
19	3896	94.9	0
19	3896	95	0
19	3896	95.1	0
19	3896	95.2	0
19	3896	95.3	0
19	3896	95.4	0
19	3896	95.5	0
19	3896	95.6	0
19	3896	95.7	0
19	3896	95.8	0
19	3896	95.9	0
19	3896	96	0
19	3896	96.1	0
19	3896	96.2	0
19	3896	96.3	0
19	3896	96.4	0
19	3896	96.5	0
19	3896	96.6	0
19	3896	96.7	0
19	3896	96.8	0
19	3896	96.9	0
19	3896	97	0
19	3896	97.1	0
19	3896	97.2	0
19	3896	97.3	0
19	3896	97.4	0
19	3896	97.5	0
19	3896	97.6	0
19	3896	97.7	0
19	4490	97.8	8000
19	4490	97.9	0
19	4490	98	0
19	4490	98.1	0
19	4490	98.2	0
19	4490	98.3	0
19	4490	98.4	0
19	4490	98.5	0
19	4490	98.6	0
19	4490	98.7	0
19	4490	98.8	0
19	4490	98.9	0
19	4490	99	0
19	4490	99.1	0
19	4490	99.2	0
19	4490	99.3	0
19	4490	99.4	0
19	4490	99.5	0
19	4490	99.6	0
19	4490	99.7	0
19	4490	99.8	0
19	4490	99.9	0
19	4490	100	0
19	4490	100.1	0
19	4490	100.2	0
19	4490	100.3	0
19	4490	100.4	0
19	4490	100.5	0
19	4490	100.6	0
19	4490	100.7	0
19	4490	100.8	0
19	4490	100.9	0
19	4490	101	0
19	4490	101.1	0
19	4490	101.2	0
19	4490	101.3	0
19	4490	101.4	0
19	4490	101.5	0
19	4490	101.6	0
19	4490	101.7	0
19	4490	101.8	0
19	4490	101.9	0
19	4490	102	0
19	4490	102.1	0
19	4490	102.2	0
19	4490	102.3	0
19	4490	102.4	0
19	4490	102.5	0
19	4490	102.6	0
19	4490	102.7	0
19	4490	102.8	0
19	4490	102.9	0
19	4490	103	0
19	4490	103.1	0
19	4490	103.2	0
19	4490	103.3	0
19	4490	103.4	0
19	4490	103.5	0
19	4490	103.6	0
19	4490	103.7	0
19	4490	103.8	0
19	4490	103.9	0
19	4490	104	0
19	4490	104.1	0
19	4490	104.2	0
19	4490	104.3	0
19	4490	104.4	0
19	4490	104.5	0
19	4490	104.6	0
19	4490	104.7	0
19	4490	104.8	0
19	4490	104.9	0
19	4490	105	0
19	4490	105.1	0
19	4490	105.2	0
19	4490	105.3	0
19	4490	105.4	0
19	4490	105.5	0
19	4490	105.6	0
19	4490	105.7	0
19	4490	105.8	0
19	4490	105.9	0
19	4490	106	0
19	4490	106.1	0
19	4490	106.2	0
19	4490	106.3	0
19	4490	106.4	0
19	4490	106.5	0
19	4490	106.6	0
19	4490	106.7	0
19	4490	106.8	0
19	4490	106.9	0
19	4490	107	0
19	4490	107.1	0
19	4490	107.2	0
19	4490	107.3	0
19	4490	107.4	0
19	4490	107.5	0
19	4490	107.6	0
19	4490	107.7	0
19	4490	107.8	0
19	4490	107.9	0
19	4490	108	0
19	4490	108.1	0
19	4490	108.2	0
19	4490	108.3	0
19	4490	108.4	0
19	4490	108.5	0
19	4490	108.6	0
19	4490	108.7	0
19	4490	108.8	0
19	4490	108.9	0
19	4490	109	0
19	4490	109.1	0
19	4490	109.2	0
19	4490	109.3	0
19	4490	109.4	0
19	4490	109.5	0
19	4490	109.6	0
19	4490	109.7	0
19	4490	109.8	0
19	4490	109.9	0
19	4490	110	0
19	4490	110.1	0
19	4490	110.2	0
19	4490	110.3	0
19	4490	110.4	0
19	4490	110.5	0
19	4490	110.6	0
19	4490	110.7	0
19	4490	110.8	0
19	4490	110.9	0
19	4490	111	0
19	4490	111.1	0
19	4490	111.2	0
19	4490	111.3	0
19	4490	111.4	0
19	4490	111.5	0
19	4490	111.6	0
19	4490	111.7	0
19	4490	111.8	0
19	4490	111.9	0
19	4490	112	0
19	4490	112.1	0
19	4490	112.2	0
19	4490	112.3	0
19	4490	112.4	0
19	4490	112.5	0
19	4490	112.6	0
19	4490	112.7	0
19	4490	112.8	0
19	4490	112.9	0
19	4490	113	0
19	4490	113.1	0
19	4490	113.2	0
19	4490	113.3	0
19	4490	113.4	0
19	4490	113.5	0
19	4490	113.6	0
19	4490	113.7	0
19	4490	113.8	0
19	4490	113.9	0
19	4490	114	0
19	4490	114.1	0
19	4490	114.2	0
19	4490	114.3	0
19	4490	114.4	0
19	4490	114.5	0
19	4490	114.6	0
19	4490	114.7	0
19	4490	114.8	0
19	4490	114.9	0
19	4490	115	0
19	4490	115.1	0
19	4490	115.2	0
19	4490	115.3	0
19	4490	115.4	0
19	4490	115.5	0
19	4490	115.6	0
19	4490	115.7	0
19	4490	115.8	0
19	4490	115.9	0
19	4490	116	0
19	4490	116.1	0
19	4490	116.2	0
19	4490	116.3	0
19	4490	116.4	0
19	4490	116.5	0
19	4490	116.6	0
19	4490	116.7	0
19	4490	116.8	0
19	4557	116.9	8000
19	4557	117	0
19	4557	117.1	0
19	4557	117.2	0
19	4557	117.3	0
19	4557	117.4	0
19	4557	117.5	0
19	4557	117.6	0
19	4557	117.7	0
19	4557	117.8	0
19	4557	117.9	0
19	4557	118	0
19	4557	118.1	0
19	4557	118.2	0
19	4557	118.3	0
19	4630	118.4	8000
19	4630	118.5	0
19	4630	118.6	0
19	4630	118.7	0
19	4630	118.8	0
19	4630	118.9	0
19	4630	119	0
19	4630	119.1	0
19	4630	119.2	0
19	4630	119.3	0
19	4630	119.4	0
19	4630	119.5	0
19	4630	119.6	0
19	5147	119.7	8000
19	5147	119.8	0
19	5147	119.9	0
19	5147	120	0
19	5147	120.1	0
19	5147	120.2	0
19	5147	120.3	0
19	5147	120.4	0
19	5147	120.5	0
19	5147	120.6	0
19	5147	120.7	0
19	5147	120.8	0
19	5147	120.9	0
19	5147	121	0
19	5147	121.1	0
19	5147	121.2	0
19	5147	121.3	0
19	5147	121.4	0
19	5147	121.5	0
19	5147	121.6	0
19	5147	121.7	0
19	5147	121.8	0
19	5147	121.9	0
19	5147	122	0
19	5147	122.1	0
19	5147	122.2	0
19	5147	122.3	0
19	5147	122.4	0
19	5147	122.5	0
19	5147	122.6	0
19	5147	122.7	0
19	5147	122.8	0
19	5147	122.9	0
19	5147	123	0
19	5147	123.1	0
19	5147	123.2	0
19	5147	123.3	0
19	5147	123.4	0
19	5147	123.5	0
19	5147	123.6	0
19	5147	123.7	0
19	5147	123.8	0
19	5147	123.9	0
19	5147	124	0
19	5147	124.1	0
19	5147	124.2	0
19	5147	124.3	0
19	5147	124.4	0
19	5147	124.5	0
19	5147	124.6	0
19	5147	124.7	0
19	5147	124.8	0
19	5147	124.9	0
19	5147	125	0
19	5147	125.1	0
19	5147	125.2	0
19	5147	125.3	0
19	5147	125.4	0
19	5147	125.5	0
19	5147	125.6	0
19	5147	125.7	0
19	5147	125.8	0
19	5147	125.9	0
19	5147	126	0
19	5147	126.1	0
19	5147	126.2	0
19	5147	126.3	0
19	5147	126.4	0
19	5147	126.5	0
19	5147	126.6	0
19	5147	126.7	0
19	5147	126.8	0
19	5147	126.9	0
19	5147	127	0
19	5147	127.1	0
19	5147	127.2	0
19	5147	127.3	0
19	5147	127.4	0
19	5147	127.5	0
19	5147	127.6	0
19	5147	127.7	0
19	5147	127.8	0
19	5147	127.9	0
19	5147	128	0
19	5147	128.1	0
19	5147	128.2	0
19	5147	128.3	0
19	5147	128.4	0
19	5147	128.5	0
19	5147	128.6	0
19	5147	128.7	0
19	5147	128.8	0
19	5147	128.9	0
19	5147	129	0
19	5147	129.1	0
19	5147	129.2	0
19	5147	129.3	0
19	5147	129.4	0
19	5147	129.5	0
19	5147	129.6	0
19	5147	129.7	0
19	5147	129.8	0
19	5147	129.9	0
19	5147	130	0
19	5147	130.1	0
19	5147	130.2	0
19	5147	130.3	0
19	5147	130.4	0
19	5147	130.5	0
19	5147	130.6	0
19	5147	130.7	0
19	5147	130.8	0
19	5147	130.9	0
19	5147	131	0
19	5147	131.1	0
19	5147	131.2	0
19	5147	131.3	0
19	5147	131.4	0
19	5147	131.5	0
19	5147	131.6	0
19	5147	131.7	0
19	5147	131.8	0
19	5147	131.9	0
19	5147	132	0
19	5147	132.1	0
19	5147	132.2	0
19	5147	132.3	0
19	5147	132.4	0
19	5147	132.5	0
19	5147	132.6	0
19	5147	132.7	0
19	5147	132.8	0
19	5147	132.9	0
19	5147	133	0
19	5147	133.1	0
19	5147	133.2	0
19	5147	133.3	0
19	5147	133.4	0
19	5147	133.5	0
19	5147	133.6	0
19	5147	133.7	0
19	5147	133.8	0
19	5147	133.9	0
19	5147	134	0
19	5147	134.1	0
19	5147	134.2	0
19	5147	134.3	0
19	5147	134.4	0
19	5147	134.5	0
19	5147	134.6	0
19	5147	134.7	0
19	5147	134.8	0
19	5147	134.9	0
19	5147	135	0
19	5147	135.1	0
19	5147	135.2	0
19	5147	135.3	0
19	5147	135.4	0
19	5147	135.5	0
19	5147	135.6	0
19	5454	135.7	8000
19	5454	135.8	0
19	5454	135.9	0
19	5454	136	0
19	5454	136.1	0
19	5454	136.2	0
19	5454	136.3	0
19	5454	136.4	0
19	5454	136.5	0
19	5454	136.6	0
19	5454	136.7	0
19	5454	136.8	0
19	5454	136.9	0
19	5454	137	0
19	5454	137.1	0
19	5454	137.2	0
19	5454	137.3	0
19	5454	137.4	0
19	5454	137.5	0
19	5454	137.6	0
19	5454	137.7	0
19	5454	137.8	0
19	5454	137.9	0
19	5454	138	0
19	5454	138.1	0
19	5454	138.2	0
19	5454	138.3	0
19	5454	138.4	0
19	5454	138.5	0
19	5454	138.6	0
19	5454	138.7	0
19	5454	138.8	0
19	5454	138.9	0
19	5454	139	0
19	5454	139.1	0
19	5454	139.2	0
19	5454	139.3	0
19	5454	139.4	0
19	5454	139.5	0
19	5454	139.6	0
19	5454	139.7	0
19	5454	139.8	0
19	5454	139.9	0
19	5454	140	0
19	5454	140.1	0
19	5454	140.2	0
19	5454	140.3	0
19	5454	140.4	0
19	5454	140.5	0
19	5454	140.6	0
19	5454	140.7	0
19	5454	140.8	0
19	5454	140.9	0
19	5454	141	0
19	5454	141.1	0
19	5454	141.2	0
19	5454	141.3	0
19	5454	141.4	0
19	5454	141.5	0
19	5454	141.6	0
19	5454	141.7	0
19	5454	141.8	0
19	5966	141.9	8000
19	5966	142	0
19	5966	142.1	0
19	5966	142.2	0
19	5966	142.3	0
19	5966	142.4	0
19	5966	142.5	0
19	5966	142.6	0
19	5966	142.7	0
19	5966	142.8	0
19	5966	142.9	0
19	5966	143	0
19	5966	143.1	0
19	5966	143.2	0
19	5966	143.3	0
19	5966	143.4	0
19	5966	143.5	0
19	5966	143.6	0
19	5966	143.7	0
19	5966	143.8	0
19	5966	143.9	0
19	5966	144	0
19	5966	144.1	0
19	5966	144.2	0
19	5966	144.3	0
19	5966	144.4	0
19	5966	144.5	0
19	5966	144.6	0
19	5966	144.7	0
19	5966	144.8	0
19	5966	144.9	0
19	5966	145	0
19	5966	145.1	0
19	5966	145.2	0
19	5966	145.3	0
19	5966	145.4	0
19	5966	145.5	0
19	5966	145.6	0
19	5966	145.7	0
19	5966	145.8	0
19	5966	145.9	0
19	5966	146	0
19	5966	146.1	0
19	5966	146.2	0
19	5966	146.3	0
19	5966	146.4	0
19	5966	146.5	0
19	5966	146.6	0
19	5966	146.7	0
19	5966	146.8	0
19	5966	146.9	0
19	5966	147	0
19	5966	147.1	0
19	5966	147.2	0
19	5966	147.3	0
19	5966	147.4	0
19	5966	147.5	0
19	5966	147.6	0
19	5966	147.7	0
19	5966	147.8	0
19	5966	147.9	0
19	5966	148	0
19	5966	148.1	0
19	5966	148.2	0
19	5966	148.3	0
19	5966	148.4	0
19	5966	148.5	0
19	5966	148.6	0
19	5966	148.7	0
19	5966	148.8	0
19	5966	148.9	0
19	5966	149	0
19	5966	149.1	0
19	5966	149.2	0
19	5966	149.3	0
19	5966	149.4	0
19	5966	149.5	0
19	5966	149.6	0
19	5966	149.7	0
19	5966	149.8	0
19	5966	149.9	0
19	5966	150	0
19	5966	150.1	0
19	5966	150.2	0
19	5966	150.3	0
19	5966	150.4	0
19	5966	150.5	0
19	5966	150.6	0
19	5966	150.7	0
19	5966	150.8	0
19	5966	150.9	0
19	5966	151	0
19	5966	151.1	0
19	5966	151.2	0
19	5966	151.3	0
19	5966	151.4	0
19	5966	151.5	0
19	5966	151.6	0
19	5966	151.7	0
19	5966	151.8	0
19	5966	151.9	0
19	5966	152	0
19	5966	152.1	0
19	5966	152.2	0
19	5966	152.3	0
19	5966	152.4	0
19	5966	152.5	0
19	5966	152.6	0
19	5966	152.7	0
19	5966	152.8	0
19	5966	152.9	0
19	5966	153	0
19	5966	153.1	0
19	5966	153.2	0
19	5966	153.3	0
19	5966	153.4	0
19	5966	153.5	0
19	5966	153.6	0
19	5966	153.7	0
19	5966	153.8	0
19	5966	153.9	0
19	5966	154	0
19	5966	154.1	0
19	5966	154.2	0
19	5966	154.3	0
19	5966	154.4	0
19	5966	154.5	0
19	5966	154.6	0
19	5966	154.7	0
19	5966	154.8	0
19	5966	154.9	0
19	5966	155	0
19	5966	155.1	0
19	5966	155.2	0
19	5966	155.3	0
19	5966	155.4	0
19	5966	155.5	0
19	5966	155.6	0
19	5966	155.7	0
19	5966	155.8	0
19	5966	155.9	0
19	6147	156	8000
19	6147	156.1	0
19	6147	156.2	0
19	6147	156.3	0
19	6147	156.4	0
19	6147	156.5	0
19	6147	156.6	0
19	6147	156.7	0
19	6147	156.8	0
19	6147	156.9	0
19	6147	157	0
19	6147	157.1	0
19	6147	157.2	0
19	6147	157.3	0
19	6147	157.4	0
19	6147	157.5	0
19	6147	157.6	0
19	6147	157.7	0
19	6147	157.8	0
19	6147	157.9	0
19	6147	158	0
19	6147	158.1	0
19	6147	158.2	0
19	6230	158.3	8000
19	6230	158.4	0
19	6230	158.5	0
19	6230	158.6	0
19	6230	158.7	0
19	6230	158.8	0
19	6230	158.9	0
19	6230	159	0
19	6230	159.1	0
19	6230	159.2	0
19	6230	159.3	0
19	6230	159.4	0
19	6230	159.5	0
19	6230	159.6	0
19	6230	159.7	0
19	6230	159.8	0
19	6230	159.9	0
19	6230	160	0
19	6230	160.1	0
19	6532	160.2	8000
19	6532	160.3	0
19	6532	160.4	0
19	6532	160.5	0
19	6532	160.6	0
19	6532	160.7	0
19	6532	160.8	0
19	6532	160.9	0
19	6532	161	0
19	6532	161.1	0
19	6532	161.2	0
19	6532	161.3	0
19	6532	161.4	0
19	6532	161.5	0
19	6532	161.6	0
19	6532	161.7	0
19	6532	161.8	0
19	6532	161.9	0
19	6532	162	0
19	6532	162.1	0
19	6532	162.2	0
19	6532	162.3	0
19	6532	162.4	0
19	6532	162.5	0
19	6532	162.6	0
19	6532	162.7	0
19	6532	162.8	0
19	6532	162.9	0
19	6532	163	0
19	6532	163.1	0
19	6532	163.2	0
19	6532	163.3	0
19	6532	163.4	0
19	6532	163.5	0
19	6532	163.6	0
19	6532	163.7	0
19	6532	163.8	0
19	6532	163.9	0
19	6532	164	0
19	6532	164.1	0
19	6532	164.2	0
19	6532	164.3	0
19	6532	164.4	0
19	6532	164.5	0
19	6532	164.6	0
19	6532	164.7	0
19	6532	164.8	0
19	6532	164.9	0
19	6532	165	0
19	6532	165.1	0
19	6532	165.2	0
19	6532	165.3	0
19	6532	165.4	0
19	6532	165.5	0
19	6532	165.6	0
19	6532	165.7	0
19	6532	165.8	0
19	6532	165.9	0
19	6532	166	0
19	6532	166.1	0
19	6532	166.2	0
19	6532	166.3	0
19	6532	166.4	0
19	6532	166.5	0
19	6532	166.6	0
19	6532	166.7	0
19	6532	166.8	0
19	6532	166.9	0
19	6532	167	0
19	6532	167.1	0
19	6532	167.2	0
19	6532	167.3	0
19	6532	167.4	0
19	6532	167.5	0
19	6532	167.6	0
19	6532	167.7	0
19	6532	167.8	0
19	6532	167.9	0
19	6532	168	0
19	6532	168.1	0
19	6532	168.2	0
19	6532	168.3	0
19	6532	168.4	0
19	6532	168.5	0
19	6532	168.6	0
19	6532	168.7	0
19	6532	168.8	0
19	6532	168.9	0
19	6532	169	0
19	6532	169.1	0
19	6532	169.2	0
19	6532	169.3	0
19	6603	169.4	8000
19	6603	169.5	0
19	6603	169.6	0
19	6603	169.7	0
19	6603	169.8	0
19	6603	169.9	0
19	6603	170	0
19	6603	170.1	0
19	6603	170.2	0
19	6603	170.3	0
19	6603	170.4	0
19	6603	170.5	0
19	6603	170.6	0
19	6603	170.7	0
19	6603	170.8	0
19	6603	170.9	0
19	7724	171	8000
19	7724	171.1	0
19	7724	171.2	0
19	7724	171.3	0
19	7724	171.4	0
19	7724	171.5	0
19	7724	171.6	0
19	7724	171.7	0
19	7724	171.8	0
19	7724	171.9	0
19	7724	172	0
19	7724	172.1	0
19	7724	172.2	0
19	7724	172.3	0
19	7724	172.4	0
19	7724	172.5	0
19	7724	172.6	0
19	7724	172.7	0
19	7724	172.8	0
19	7724	172.9	0
19	7724	173	0
19	7724	173.1	0
19	7724	173.2	0
19	7724	173.3	0
19	7724	173.4	0
19	7724	173.5	0
19	7724	173.6	0
19	7724	173.7	0
19	7724	173.8	0
19	7724	173.9	0
19	7724	174	0
19	7724	174.1	0
19	7724	174.2	0
19	7724	174.3	0
19	7724	174.4	0
19	7724	174.5	0
19	7724	174.6	0
19	7724	174.7	0
19	7724	174.8	0
19	7724	174.9	0
19	7724	175	0
19	7724	175.1	0
19	7724	175.2	0
19	7724	175.3	0
19	7724	175.4	0
19	7724	175.5	0
19	7724	175.6	0
19	7724	175.7	0
19	7724	175.8	0
19	7724	175.9	0
19	7724	176	0
19	7724	176.1	0
19	7724	176.2	0
19	7724	176.3	0
19	7724	176.4	0
19	7724	176.5	0
19	7724	176.6	0
19	7724	176.7	0
19	7724	176.8	0
19	7724	176.9	0
19	7724	177	0
19	7724	177.1	0
19	7724	177.2	0
19	7724	177.3	0
19	7724	177.4	0
19	7724	177.5	0
19	7724	177.6	0
19	7724	177.7	0
19	7724	177.8	0
19	7724	177.9	0
19	7724	178	0
19	7724	178.1	0
19	7724	178.2	0
19	7724	178.3	0
19	7724	178.4	0
19	7724	178.5	0
19	7724	178.6	0
19	7724	178.7	0
19	7724	178.8	0
19	7724	178.9	0
19	7724	179	0
19	7724	179.1	0
19	7724	179.2	0
19	7724	179.3	0
19	7724	179.4	0
19	7724	179.5	0
19	7724	179.6	0
19	7724	179.7	0
19	7724	179.8	0
19	7724	179.9	0
19	7724	180	0
19	7724	180.1	0
19	7724	180.2	0
19	7724	180.3	0
19	7724	180.4	0
19	7724	180.5	0
19	7724	180.6	0
19	7724	180.7	0
19	7724	180.8	0
19	7724	180.9	0
19	7724	181	0
19	7724	181.1	0
19	7724	181.2	0
19	7724	181.3	0
19	7724	181.4	0
19	7724	181.5	0
19	7724	181.6	0
19	7724	181.7	0
19	7724	181.8	0
19	7724	181.9	0
19	7724	182	0
19	7724	182.1	0
19	7724	182.2	0
19	7724	182.3	0
19	7724	182.4	0
19	7724	182.5	0
19	7724	182.6	0
19	7724	182.7	0
19	7724	182.8	0
19	7724	182.9	0
19	7724	183	0
19	7724	183.1	0
19	7724	183.2	0
19	7724	183.3	0
19	7724	183.4	0
19	7724	183.5	0
19	7724	183.6	0
19	7724	183.7	0
19	7724	183.8	0
19	7724	183.9	0
19	7724	184	0
19	7724	184.1	0
19	7724	184.2	0
19	7724	184.3	0
19	7724	184.4	0
19	7724	184.5	0
19	7724	184.6	0
19	7724	184.7	0
19	7724	184.8	0
19	7724	184.9	0
19	7724	185	0
19	7724	185.1	0
19	7724	185.2	0
19	7724	185.3	0
19	7724	185.4	0
19	7724	185.5	0
19	7724	185.6	0
19	7724	185.7	0
19	7724	185.8	0
19	7724	185.9	0
19	7724	186	0
19	7724	186.1	0
19	7724	186.2	0
19	7724	186.3	0
19	7724	186.4	0
19	7724	186.5	0
19	7724	186.6	0
19	7724	186.7	0
19	7724	186.8	0
19	7724	186.9	0
19	7724	187	0
19	7724	187.1	0
19	7724	187.2	0
19	7724	187.3	0
19	7724	187.4	0
19	7724	187.5	0
19	7724	187.6	0
19	7724	187.7	0
19	7724	187.8	0
19	7724	187.9	0
19	7724	188	0
19	7724	188.1	0
19	7724	188.2	0
19	7724	188.3	0
19	7724	188.4	0
19	7724	188.5	0
19	7724	188.6	0
19	7724	188.7	0
19	7724	188.8	0
19	7724	188.9	0
19	7724	189	0
19	7724	189.1	0
19	7724	189.2	0
19	7724	189.3	0
19	7724	189.4	0
19	7724	189.5	0
19	7724	189.6	0
19	7724	189.7	0
19	7724	189.8	0
19	7724	189.9	0
19	7724	190	0
19	7724	190.1	0
19	7724	190.2	0
19	7724	190.3	0
19	7724	190.4	0
19	7724	190.5	0
19	7724	190.6	0
19	7724	190.7	0
19	7724	190.8	0
19	7724	190.9	0
19	7724	191	0
19	7724	191.1	0
19	7724	191.2	0
19	7724	191.3	0
19	7724	191.4	0
19	7724	191.5	0
19	7724	191.6	0
19	7724	191.7	0
19	7724	191.8	0
19	7724	191.9	0
19	7724	192	0
19	7724	192.1	0
19	7724	192.2	0
19	7724	192.3	0
19	7724	192.4	0
19	7724	192.5	0
19	7724	192.6	0
19	7724	192.7	0
19	7724	192.8	0
19	7724	192.9	0
19	7724	193	0
19	7724	193.1	0
19	7724	193.2	0
19	7724	193.3	0
19	7724	193.4	0
19	7724	193.5	0
19	7724	193.6	0
19	7724	193.7	0
19	7724	193.8	0
19	7724	193.9	0
19	7724	194	0
19	7724	194.1	0
19	7724	194.2	0
19	7724	194.3	0
19	7724	194.4	0
19	7724	194.5	0
19	7724	194.6	0
19	7724	194.7	0
19	7724	194.8	0
19	7724	194.9	0
19	7724	195	0
19	7724	195.1	0
19	7724	195.2	0
19	7724	195.3	0
19	7724	195.4	0
19	7724	195.5	0
19	7724	195.6	0
19	7724	195.7	0
19	7724	195.8	0
19	7724	195.9	0
19	7724	196	0
19	7724	196.1	0
19	7724	196.2	0
19	7724	196.3	0
19	7724	196.4	0
19	7724	196.5	0
19	7724	196.6	0
19	7724	196.7	0
19	7724	196.8	0
19	7724	196.9	0
19	7724	197	0
19	7724	197.1	0
19	7724	197.2	0
19	7724	197.3	0
19	7724	197.4	0
19	7724	197.5	0
19	7724	197.6	0
19	7724	197.7	0
19	7724	197.8	0
19	7724	197.9	0
19	7724	198	0
19	7724	198.1	0
19	7724	198.2	0
19	7724	198.3	0
19	7724	198.4	0
19	7724	198.5	0
19	7724	198.6	0
19	7724	198.7	0
19	7724	198.8	0
19	7724	198.9	0
19	7724	199	0
19	7724	199.1	0
19	7724	199.2	0
19	7724	199.3	0
19	7724	199.4	0
19	7724	199.5	0
19	7724	199.6	0
19	7724	199.7	0
19	7724	199.8	0
19	7724	199.9	0
19	7724	200	0
19	7724	200.1	0
19	7724	200.2	0
19	7724	200.3	0
19	7724	200.4	0
19	8802	200.5	8000
19	8802	200.6	0
19	8802	200.7	0
19	8802	200.8	0
19	8802	200.9	0
19	8802	201	0
19	8802	201.1	0
19	8802	201.2	0
19	8802	201.3	0
19	8802	201.4	0
19	8802	201.5	0
19	8802	201.6	0
19	8802	201.7	0
19	8802	201.8	0
19	8802	201.9	0
19	8802	202	0
19	8802	202.1	0
19	8802	202.2	0
19	8802	202.3	0
19	8802	202.4	0
19	8802	202.5	0
19	8802	202.6	0
19	8802	202.7	0
19	8802	202.8	0
19	8802	202.9	0
19	8802	203	0
19	8802	203.1	0
19	8802	203.2	0
19	8802	203.3	0
19	8802	203.4	0
19	8802	203.5	0
19	8802	203.6	0
19	8802	203.7	0
19	8802	203.8	0
19	8802	203.9	0
19	8802	204	0
19	8802	204.1	0
19	8802	204.2	0
19	8802	204.3	0
19	8802	204.4	0
19	8802	204.5	0
19	8802	204.6	0
19	8802	204.7	0
19	8802	204.8	0
19	8802	204.9	0
19	8802	205	0
19	8802	205.1	0
19	8802	205.2	0
19	8802	205.3	0
19	8802	205.4	0
19	8802	205.5	0
19	8802	205.6	0
19	8802	205.7	0
19	8802	205.8	0
19	8802	205.9	0
19	8802	206	0
19	8802	206.1	0
19	8802	206.2	0
19	8802	206.3	0
19	8802	206.4	0
19	8802	206.5	0
19	8802	206.6	0
19	8802	206.7	0
19	8802	206.8	0
19	8802	206.9	0
19	8802	207	0
19	8802	207.1	0
19	8802	207.2	0
19	8802	207.3	0
19	8802	207.4	0
19	8802	207.5	0
19	8802	207.6	0
19	8802	207.7	0
19	8802	207.8	0
19	8802	207.9	0
19	8802	208	0
19	8802	208.1	0
19	8802	208.2	0
19	8802	208.3	0
19	8802	208.4	0
19	8802	208.5	0
19	8802	208.6	0
19	8802	208.7	0
19	8802	208.8	0
19	8802	208.9	0
19	8802	209	0
19	8802	209.1	0
19	8802	209.2	0
19	8802	209.3	0
19	8802	209.4	0
19	8802	209.5	0
19	8802	209.6	0
19	8802	209.7	0
19	8802	209.8	0
19	8802	209.9	0
19	8802	210	0
19	8802	210.1	0
19	8802	210.2	0
19	8802	210.3	0
19	8802	210.4	0
19	8802	210.5	0
19	8802	210.6	0
19	8802	210.7	0
19	8802	210.8	0
19	8802	210.9	0
19	8802	211	0
19	8802	211.1	0
19	8802	211.2	0
19	8802	211.3	0
19	8802	211.4	0
19	8802	211.5	0
19	8802	211.6	0
19	8802	211.7	0
19	8802	211.8	0
19	8802	211.9	0
19	8802	212	0
19	8802	212.1	0
19	8802	212.2	0
19	8802	212.3	0
19	8802	212.4	0
19	8802	212.5	0
19	8802	212.6	0
19	8802	212.7	0
19	8802	212.8	0
19	8802	212.9	0
19	8802	213	0
19	8802	213.1	0
19	8802	213.2	0
19	8802	213.3	0
19	8802	213.4	0
19	8802	213.5	0
19	8802	213.6	0
19	8802	213.7	0
19	8802	213.8	0
19	8802	213.9	0
19	8802	214	0
19	8802	214.1	0
19	8802	214.2	0
19	8802	214.3	0
19	8802	214.4	0
19	8802	214.5	0
19	8802	214.6	0
19	8802	214.7	0
19	8802	214.8	0
19	8802	214.9	0
19	8802	215	0
19	8802	215.1	0
19	8802	215.2	0
19	8802	215.3	0
19	8802	215.4	0
19	8802	215.5	0
19	8802	215.6	0
19	8802	215.7	0
19	8802	215.8	0
19	8802	215.9	0
19	8802	216	0
19	8802	216.1	0
19	8802	216.2	0
19	8802	216.3	0
19	8802	216.4	0
19	8802	216.5	0
19	8802	216.6	0
19	8802	216.7	0
19	8802	216.8	0
19	8802	216.9	0
19	8802	217	0
19	8802	217.1	0
19	8802	217.2	0
19	8802	217.3	0
19	8802	217.4	0
19	8802	217.5	0
19	8802	217.6	0
19	8802	217.7	0
19	8802	217.8	0
19	8802	217.9	0
19	8802	218	0
19	8802	218.1	0
19	8802	218.2	0
19	8802	218.3	0
19	8802	218.4	0
19	8802	218.5	0
19	8802	218.6	0
19	8802	218.7	0
19	8802	218.8	0
19	8802	218.9	0
19	8802	219	0
19	8802	219.1	0
19	8802	219.2	0
19	8802	219.3	0
19	8802	219.4	0
19	8802	219.5	0
19	8802	219.6	0
19	8802	219.7	0
19	8802	219.8	0
19	8802	219.9	0
19	8802	220	0
19	8802	220.1	0
19	8802	220.2	0
19	8802	220.3	0
19	8802	220.4	0
19	8802	220.5	0
19	8802	220.6	0
19	8802	220.7	0
19	8802	220.8	0
19	8802	220.9	0
19	8802	221	0
19	8802	221.1	0
19	8802	221.2	0
19	8802	221.3	0
19	8802	221.4	0
19	8802	221.5	0
19	8802	221.6	0
19	8802	221.7	0
19	8802	221.8	0
19	8802	221.9	0
19	8802	222	0
19	8802	222.1	0
19	8802	222.2	0
19	8802	222.3	0
19	8802	222.4	0
19	8802	222.5	0
19	8802	222.6	0
19	8802	222.7	0
19	8802	222.8	0
19	8802	222.9	0
19	8802	223	0
19	8802	223.1	0
19	8802	223.2	0
19	8802	223.3	0
19	8802	223.4	0
19	8802	223.5	0
19	8802	223.6	0
19	8802	223.7	0
19	8802	223.8	0
19	8802	223.9	0
19	8802	224	0
19	8802	224.1	0
19	8802	224.2	0
19	8802	224.3	0
19	8802	224.4	0
19	8944	224.5	8000
19	8944	224.6	0
19	8944	224.7	0
19	8944	224.8	0
19	8944	224.9	0
19	8944	225	0
19	8944	225.1	0
19	8944	225.2	0
19	8944	225.3	0
19	8944	225.4	0
19	8944	225.5	0
19	8944	225.6	0
19	8944	225.7	0
19	8944	225.8	0
19	8944	225.9	0
19	8944	226	0
19	8944	226.1	0
19	8944	226.2	0
19	8944	226.3	0
19	8944	226.4	0
19	8944	226.5	0
19	8944	226.6	0
19	8944	226.7	0
19	8944	226.8	0
19	8944	226.9	0
19	8944	227	0
19	8944	227.1	0
19	8944	227.2	0
19	8944	227.3	0
19	8944	227.4	0
19	8944	227.5	0
19	8944	227.6	0
19	8944	227.7	0
19	8944	227.8	0
19	8944	227.9	0
19	8944	228	0
19	8944	228.1	0
19	8944	228.2	0
19	8944	228.3	0
19	9610	228.4	8000
19	9610	228.5	0
19	9610	228.6	0
19	9610	228.7	0
19	9610	228.8	0
19	9610	228.9	0
19	9610	229	0
19	9610	229.1	0
19	9610	229.2	0
19	9610	229.3	0
19	9610	229.4	0
19	9610	229.5	0
19	9610	229.6	0
19	9610	229.7	0
19	9610	229.8	0
19	9610	229.9	0
19	9610	230	0
19	9610	230.1	0
19	9610	230.2	0
19	9610	230.3	0
19	9610	230.4	0
19	9610	230.5	0
19	9610	230.6	0
19	9610	230.7	0
19	9610	230.8	0
19	9610	230.9	0
19	9610	231	0
19	9610	231.1	0
19	9610	231.2	0
19	9610	231.3	0
19	9610	231.4	0
19	9610	231.5	0
19	9610	231.6	0
19	9610	231.7	0
19	9610	231.8	0
19	9610	231.9	0
19	9610	232	0
19	9610	232.1	0
19	9610	232.2	0
19	9610	232.3	0
19	9610	232.4	0
19	9610	232.5	0
19	9610	232.6	0
19	9610	232.7	0
19	9610	232.8	0
19	9610	232.9	0
19	9610	233	0
19	9610	233.1	0
19	9610	233.2	0
19	9610	233.3	0
19	9610	233.4	0
19	9610	233.5	0
19	9610	233.6	0
19	9610	233.7	0
19	9610	233.8	0
19	9610	233.9	0
19	9610	234	0
19	9610	234.1	0
19	9610	234.2	0
19	9610	234.3	0
19	9610	234.4	0
19	9610	234.5	0
19	9610	234.6	0
19	9610	234.7	0
19	9610	234.8	0
19	9610	234.9	0
19	9610	235	0
19	9610	235.1	0
19	9610	235.2	0
19	9610	235.3	0
19	9610	235.4	0
19	9610	235.5	0
19	9610	235.6	0
19	9610	235.7	0
19	9610	235.8	0
19	9610	235.9	0
19	9610	236	0
19	9610	236.1	0
19	9610	236.2	0
19	9610	236.3	0
19	9610	236.4	0
19	9610	236.5	0
19	9610	236.6	0
19	9610	236.7	0
19	9610	236.8	0
19	9610	236.9	0
19	9610	237	0
19	9610	237.1	0
19	9610	237.2	0
19	9610	237.3	0
19	9610	237.4	0
19	9610	237.5	0
19	9610	237.6	0
19	9610	237.7	0
19	9610	237.8	0
19	9610	237.9	0
19	9610	238	0
19	9610	238.1	0
19	9610	238.2	0
19	9610	238.3	0
19	9610	238.4	0
19	9610	238.5	0
19	9610	238.6	0
19	9610	238.7	0
19	9610	238.8	0
19	9610	238.9	0
19	9610	239	0
19	9610	239.1	0
19	9610	239.2	0
19	9610	239.3	0
19	9610	239.4	0
19	9610	239.5	0
19	9610	239.6	0
19	9610	239.7	0
19	9610	239.8	0
19	9610	239.9	0
19	9610	240	0
19	9610	240.1	0
19	9610	240.2	0
19	9610	240.3	0
19	9610	240.4	0
19	9610	240.5	0
19	9610	240.6	0
19	9610	240.7	0
19	9610	240.8	0
19	9610	240.9	0
19	9610	241	0
19	9610	241.1	0
19	9610	241.2	0
19	9610	241.3	0
19	9610	241.4	0
19	9610	241.5	0
19	9610	241.6	0
19	9610	241.7	0
19	9610	241.8	0
19	9610	241.9	0
19	9610	242	0
19	9610	242.1	0
19	9610	242.2	0
19	9610	242.3	0
19	9610	242.4	0
19	9610	242.5	0
19	9610	242.6	0
19	9610	242.7	0
19	9610	242.8	0
19	9610	242.9	0
19	9610	243	0
19	9610	243.1	0
19	9610	243.2	0
19	9610	243.3	0
19	9610	243.4	0
19	9610	243.5	0
19	9610	243.6	0
19	9610	243.7	0
19	9610	243.8	0
19	9610	243.9	0
19	9610	244	0
19	9610	244.1	0
19	9610	244.2	0
19	9610	244.3	0
19	9610	244.4	0
19	9610	244.5	0
19	9610	244.6	0
19	9610	244.7	0
19	9610	244.8	0
19	9610	244.9	0
19	9610	245	0
19	9610	245.1	0
19	9610	245.2	0
19	9610	245.3	0
19	9610	245.4	0
19	9610	245.5	0
19	9610	245.6	0
19	9610	245.7	0
19	9610	245.8	0
19	9610	245.9	0
19	9610	246	0
19	9610	246.1	0
19	9829	246.2	8000
19	9829	246.3	0
19	9829	246.4	0
19	9829	246.5	0
19	9829	246.6	0
19	9829	246.7	0
19	9829	246.8	0
19	9829	246.9	0
19	9829	247	0
19	9829	247.1	0
19	9829	247.2	0
19	9829	247.3	0
19	9829	247.4	0
19	9829	247.5	0
19	9829	247.6	0
19	9829	247.7	0
19	9829	247.8	0
19	9829	247.9	0
19	9829	248	0
19	9829	248.1	0
19	9829	248.2	0
19	9829	248.3	0
19	9829	248.4	0
19	9829	248.5	0
19	9829	248.6	0
19	9829	248.7	0
19	9829	248.8	0
19	9829	248.9	0
19	9829	249	0
19	9829	249.1	0
19	9829	249.2	0
19	9829	249.3	0
19	9829	249.4	0
19	9829	249.5	0
19	9829	249.6	0
19	9829	249.7	0
19	9829	249.8	0
19	9829	249.9	0
19	9829	250	0
19	9829	250.1	0
19	9829	250.2	0
19	9829	250.3	0
19	9829	250.4	0
19	9829	250.5	0
19	9829	250.6	0
19	9829	250.7	0
19	9829	250.8	0
19	9829	250.9	0
19	9829	251	0
19	9829	251.1	0
19	9829	251.2	0
19	9829	251.3	0
19	9829	251.4	0
19	9829	251.5	0
19	9829	251.6	0
19	9829	251.7	0
19	9829	251.8	0
19	9829	251.9	0
19	9829	252	0
19	9829	252.1	0
19	9829	252.2	0
19	9829	252.3	0
19	9829	252.4	0
19	9829	252.5	0
19	9996	252.6	8000
19	9996	252.7	0
19	9996	252.8	0
19	9996	252.9	0
19	9996	253	0
19	9996	253.1	0
19	9996	253.2	0
19	9996	253.3	0
19	9996	253.4	0
19	9996	253.5	0
19	9996	253.6	0
19	9996	253.7	0
19	9996	253.8	0
19	9996	253.9	0
19	9996	254	0
19	9996	254.1	0
19	9996	254.2	0
19	9996	254.3	0
19	9996	254.4	0
19	9996	254.5	0
19	9996	254.6	0
19	9996	254.7	0
19	9996	254.8	0
19	9996	254.9	0
19	9996	255	0
19	9996	255.1	0
19	9996	255.2	0
19	9996	255.3	0
19	9996	255.4	0
19	9996	255.5	0
19	9996	255.6	0
19	9996	255.7	0
19	9996	255.8	0
19	9996	255.9	0
19	9996	256	0
19	9996	256.1	0
19	9996	256.2	0
19	9996	256.3	0
19	9996	256.4	0
19	9996	256.5	0
19	9996	256.6	0
19	9996	256.7	0
19	9996	256.8	0
19	9996	256.9	0
19	9996	257	0
19	9996	257.1	0
19	9996	257.2	0
19	9996	257.3	0
19	9996	257.4	0
19	10364	257.5	8000
19	10364	257.6	0
19	10364	257.7	0
19	10364	257.8	0
19	10364	257.9	0
19	10364	258	0
19	10364	258.1	0
19	10364	258.2	0
19	10364	258.3	0
19	10364	258.4	0
19	10364	258.5	0
19	10364	258.6	0
19	10364	258.7	0
19	10364	258.8	0
19	10364	258.9	0
19	10364	259	0
19	10364	259.1	0
19	10364	259.2	0
19	10364	259.3	0
19	10364	259.4	0
19	10364	259.5	0
19	10364	259.6	0
19	10364	259.7	0
19	10364	259.8	0
19	10364	259.9	0
19	10364	260	0
19	10364	260.1	0
19	10364	260.2	0
19	10364	260.3	0
19	10364	260.4	0
19	10364	260.5	0
19	10364	260.6	0
19	10364	260.7	0
19	10364	260.8	0
19	10364	260.9	0
19	10364	261	0
19	10364	261.1	0
19	10364	261.2	0
19	10364	261.3	0
19	10364	261.4	0
19	10364	261.5	0
19	10364	261.6	0
19	10364	261.7	0
19	10364	261.8	0
19	10364	261.9	0
19	10364	262	0
19	10364	262.1	0
19	10364	262.2	0
19	10364	262.3	0
19	10364	262.4	0
19	10364	262.5	0
19	10364	262.6	0
19	10364	262.7	0
19	10364	262.8	0
19	10364	262.9	0
19	10364	263	0
19	10364	263.1	0
19	10364	263.2	0
19	10364	263.3	0
19	10364	263.4	0
19	10364	263.5	0
19	10364	263.6	0
19	10364	263.7	0
19	10364	263.8	0
19	10364	263.9	0
19	10364	264	0
19	10364	264.1	0
19	10364	264.2	0
19	10364	264.3	0
19	10364	264.4	0
19	10364	264.5	0
19	10364	264.6	0
19	10364	264.7	0
19	10364	264.8	0
19	10364	264.9	0
19	10364	265	0
19	10364	265.1	0
19	10364	265.2	0
19	10364	265.3	0
19	10364	265.4	0
19	10364	265.5	0
19	10364	265.6	0
19	10364	265.7	0
19	10364	265.8	0
19	10364	265.9	0
19	10364	266	0
19	10364	266.1	0
19	10364	266.2	0
19	10364	266.3	0
19	10364	266.4	0
19	10364	266.5	0
19	10364	266.6	0
19	10364	266.7	0
19	10364	266.8	0
19	10364	266.9	0
19	10364	267	0
19	10364	267.1	0
19	10364	267.2	0
19	10364	267.3	0
19	10364	267.4	0
19	10364	267.5	0
19	10364	267.6	0
19	10364	267.7	0
19	10364	267.8	0
19	10364	267.9	0
19	10364	268	0
19	10364	268.1	0
19	10364	268.2	0
19	10873	268.3	8000
19	10873	268.4	0
19	10873	268.5	0
19	10873	268.6	0
19	10873	268.7	0
19	10873	268.8	0
19	10873	268.9	0
19	10873	269	0
19	10873	269.1	0
19	10873	269.2	0
19	10873	269.3	0
19	10873	269.4	0
19	10873	269.5	0
19	10873	269.6	0
19	10873	269.7	0
19	10873	269.8	0
19	10873	269.9	0
19	10873	270	0
19	10873	270.1	0
19	10873	270.2	0
19	10873	270.3	0
19	10873	270.4	0
19	10873	270.5	0
19	10873	270.6	0
19	10873	270.7	0
19	10873	270.8	0
19	10873	270.9	0
19	10873	271	0
19	10873	271.1	0
19	10873	271.2	0
19	10873	271.3	0
19	10873	271.4	0
19	10873	271.5	0
19	10873	271.6	0
19	10873	271.7	0
19	10873	271.8	0
19	10873	271.9	0
19	10873	272	0
19	10873	272.1	0
19	10873	272.2	0
19	10873	272.3	0
19	10873	272.4	0
19	10873	272.5	0
19	10873	272.6	0
19	10873	272.7	0
19	10873	272.8	0
19	10873	272.9	0
19	10873	273	0
19	10873	273.1	0
19	10873	273.2	0
19	10873	273.3	0
19	10873	273.4	0
19	10873	273.5	0
19	10873	273.6	0
19	10873	273.7	0
19	10873	273.8	0
19	10873	273.9	0
19	10873	274	0
19	10873	274.1	0
19	10873	274.2	0
19	10873	274.3	0
19	10873	274.4	0
19	10873	274.5	0
19	10873	274.6	0
19	10873	274.7	0
19	10873	274.8	0
19	10873	274.9	0
19	10873	275	0
19	10873	275.1	0
19	10873	275.2	0
19	10873	275.3	0
19	10873	275.4	0
19	10873	275.5	0
19	10873	275.6	0
19	10873	275.7	0
19	10873	275.8	0
19	10873	275.9	0
19	10873	276	0
19	10873	276.1	0
19	10873	276.2	0
19	10873	276.3	0
19	10873	276.4	0
19	10873	276.5	0
19	10873	276.6	0
19	10873	276.7	0
19	10873	276.8	0
19	10873	276.9	0
19	10873	277	0
19	10873	277.1	0
19	10873	277.2	0
19	10873	277.3	0
19	10873	277.4	0
19	10873	277.5	0
19	10873	277.6	0
19	10873	277.7	0
19	10873	277.8	0
19	10873	277.9	0
19	10873	278	0
19	10873	278.1	0
19	10873	278.2	0
19	10873	278.3	0
19	10873	278.4	0
19	10873	278.5	0
19	10873	278.6	0
19	10873	278.7	0
19	10873	278.8	0
19	10873	278.9	0
19	10873	279	0
19	10873	279.1	0
19	10873	279.2	0
19	10873	279.3	0
19	10873	279.4	0
19	10873	279.5	0
19	10873	279.6	0
19	10873	279.7	0
19	10873	279.8	0
19	10873	279.9	0
19	10873	280	0
19	10873	280.1	0
19	10873	280.2	0
19	10873	280.3	0
19	10873	280.4	0
19	10873	280.5	0
19	10873	280.6	0
19	10873	280.7	0
19	10873	280.8	0
19	10873	280.9	0
19	11306	281	8000
19	11306	281.1	0
19	11306	281.2	0
19	11306	281.3	0
19	11306	281.4	0
19	11306	281.5	0
19	11306	281.6	0
19	11306	281.7	0
19	11306	281.8	0
19	11306	281.9	0
19	11306	282	0
19	11306	282.1	0
19	11306	282.2	0
19	11306	282.3	0
19	11306	282.4	0
19	11306	282.5	0
19	11306	282.6	0
19	11306	282.7	0
19	11306	282.8	0
19	11306	282.9	0
19	11306	283	0
19	11306	283.1	0
19	11306	283.2	0
19	11306	283.3	0
19	11306	283.4	0
19	11306	283.5	0
19	11306	283.6	0
19	11306	283.7	0
19	11306	283.8	0
19	11306	283.9	0
19	11306	284	0
19	11306	284.1	0
19	11306	284.2	0
19	11306	284.3	0
19	11306	284.4	0
19	11306	284.5	0
19	11306	284.6	0
19	11306	284.7	0
19	11306	284.8	0
19	11306	284.9	0
19	11306	285	0
19	11306	285.1	0
19	11306	285.2	0
19	11306	285.3	0
19	11306	285.4	0
19	11306	285.5	0
19	11306	285.6	0
19	11306	285.7	0
19	11306	285.8	0
19	11306	285.9	0
19	11306	286	0
19	11306	286.1	0
19	11306	286.2	0
19	11306	286.3	0
19	11306	286.4	0
19	11306	286.5	0
19	11306	286.6	0
19	11306	286.7	0
19	11306	286.8	0
19	11306	286.9	0
19	11306	287	0
19	11306	287.1	0
19	11306	287.2	0
19	11306	287.3	0
19	11306	287.4	0
19	11306	287.5	0
19	11306	287.6	0
19	11306	287.7	0
19	11306	287.8	0
19	11306	287.9	0
19	11306	288	0
19	11306	288.1	0
19	11306	288.2	0
19	11306	288.3	0
19	11306	288.4	0
19	11306	288.5	0
19	11306	288.6	0
19	11306	288.7	0
19	11306	288.8	0
19	11306	288.9	0
19	11306	289	0
19	11306	289.1	0
19	11306	289.2	0
19	11306	289.3	0
19	11306	289.4	0
19	11306	289.5	0
19	11306	289.6	0
19	11306	289.7	0
19	11306	289.8	0
19	11306	289.9	0
19	11306	290	0
19	11306	290.1	0
19	11306	290.2	0
19	11306	290.3	0
19	11306	290.4	0
19	11306	290.5	0
19	11306	290.6	0
19	11306	290.7	0
19	11306	290.8	0
19	11306	290.9	0
19	11306	291	0
19	11306	291.1	0
19	11306	291.2	0
19	11306	291.3	0
19	11306	291.4	0
19	11306	291.5	0
19	11306	291.6	0
19	11306	291.7	0
19	11306	291.8	0
19	11306	291.9	0
19	11306	292	0
19	11306	292.1	0
19	11306	292.2	0
19	11306	292.3	0
19	11306	292.4	0
19	11306	292.5	0
19	11306	292.6	0
19	11306	292.7	0
19	11306	292.8	0
19	11306	292.9	0
19	11306	293	0
19	11306	293.1	0
19	11306	293.2	0
19	11306	293.3	0
19	11584	293.4	8000
19	11584	293.5	0
19	11584	293.6	0
19	11584	293.7	0
19	11584	293.8	0
19	11584	293.9	0
19	11584	294	0
19	11584	294.1	0
19	11584	294.2	0
19	11584	294.3	0
19	11584	294.4	0
19	11584	294.5	0
19	11584	294.6	0
19	11584	294.7	0
19	11584	294.8	0
19	11584	294.9	0
19	11584	295	0
19	11584	295.1	0
19	11584	295.2	0
19	11584	295.3	0
19	11584	295.4	0
19	11584	295.5	0
19	11584	295.6	0
19	11584	295.7	0
19	11584	295.8	0
19	11584	295.9	0
19	11584	296	0
19	11584	296.1	0
19	11584	296.2	0
19	11584	296.3	0
19	11584	296.4	0
19	11584	296.5	0
19	11584	296.6	0
19	11584	296.7	0
19	11584	296.8	0
19	11584	296.9	0
19	11584	297	0
19	11584	297.1	0
19	11584	297.2	0
19	11584	297.3	0
19	11584	297.4	0
19	11584	297.5	0
19	11584	297.6	0
19	11584	297.7	0
19	11584	297.8	0
19	11584	297.9	0
19	11584	298	0
19	11584	298.1	0
19	11584	298.2	0
19	11584	298.3	0
19	11584	298.4	0
19	11584	298.5	0
19	11584	298.6	0
19	11584	298.7	0
19	11584	298.8	0
19	11584	298.9	0
19	11584	299	0
19	11584	299.1	0
19	11584	299.2	0
19	11584	299.3	0
19	11584	299.4	0
19	11584	299.5	0
19	11584	299.6	0
19	11584	299.7	0
19	11584	299.8	0
19	11584	299.9	0
19	11584	300	0
19	11584	300.1	0
19	11584	300.2	0
19	11584	300.3	0
19	11862	300.4	8000
19	11862	300.5	0
19	11862	300.6	0
19	11862	300.7	0
19	11862	300.8	0
19	11862	300.9	0
19	11862	301	0
19	11862	301.1	0
19	11862	301.2	0
19	11862	301.3	0
19	11862	301.4	0
19	11862	301.5	0
19	11862	301.6	0
19	11862	301.7	0
19	11862	301.8	0
19	11862	301.9	0
19	11862	302	0
19	11862	302.1	0
19	11862	302.2	0
19	11862	302.3	0
19	11862	302.4	0
19	11862	302.5	0
19	11862	302.6	0
19	11862	302.7	0
19	11862	302.8	0
19	11862	302.9	0
19	11862	303	0
19	11862	303.1	0
19	11862	303.2	0
19	11862	303.3	0
19	11862	303.4	0
19	11862	303.5	0
19	11862	303.6	0
19	11862	303.7	0
19	11862	303.8	0
19	11862	303.9	0
19	11862	304	0
19	11862	304.1	0
19	11862	304.2	0
19	11862	304.3	0
19	11862	304.4	0
19	11862	304.5	0
19	11862	304.6	0
19	11862	304.7	0
19	11862	304.8	0
19	11862	304.9	0
19	11862	305	0
19	11862	305.1	0
19	11862	305.2	0
19	11862	305.3	0
19	11862	305.4	0
19	11862	305.5	0
19	11862	305.6	0
19	11862	305.7	0
19	11862	305.8	0
19	11862	305.9	0
19	11862	306	0
19	11862	306.1	0
19	11862	306.2	0
19	11862	306.3	0
19	11862	306.4	0
19	11862	306.5	0
19	11862	306.6	0
19	11862	306.7	0
19	11862	306.8	0
19	11862	306.9	0
19	11862	307	0
19	11862	307.1	0
19	11862	307.2	0
19	11862	307.3	0
19	11862	307.4	0
19	11862	307.5	0
19	11862	307.6	0
19	11862	307.7	0
19	11862	307.8	0
19	11862	307.9	0
19	11862	308	0
19	11862	308.1	0
19	11862	308.2	0
19	11862	308.3	0
19	11862	308.4	0
19	11862	308.5	0
19	11862	308.6	0
19	12737	308.7	8000
19	12737	308.8	0
19	12737	308.9	0
19	12737	309	0
19	12737	309.1	0
19	12737	309.2	0
19	12737	309.3	0
19	12737	309.4	0
19	12737	309.5	0
19	12737	309.6	0
19	12737	309.7	0
19	12737	309.8	0
19	12737	309.9	0
19	12737	310	0
19	12737	310.1	0
19	12737	310.2	0
19	12737	310.3	0
19	12737	310.4	0
19	12737	310.5	0
19	12737	310.6	0
19	12737	310.7	0
19	12737	310.8	0
19	12737	310.9	0
19	12737	311	0
19	12737	311.1	0
19	12737	311.2	0
19	12737	311.3	0
19	12737	311.4	0
19	12737	311.5	0
19	12737	311.6	0
19	12737	311.7	0
19	12737	311.8	0
19	12737	311.9	0
19	12737	312	0
19	12737	312.1	0
19	12737	312.2	0
19	12737	312.3	0
19	12737	312.4	0
19	12737	312.5	0
19	12737	312.6	0
19	12737	312.7	0
19	12737	312.8	0
19	12737	312.9	0
19	12737	313	0
19	12737	313.1	0
19	12737	313.2	0
19	12737	313.3	0
19	12737	313.4	0
19	12737	313.5	0
19	12737	313.6	0
19	12737	313.7	0
19	12737	313.8	0
19	12737	313.9	0
19	12737	314	0
19	12737	314.1	0
19	12737	314.2	0
19	12737	314.3	0
19	12737	314.4	0
19	12737	314.5	0
19	12737	314.6	0
19	12737	314.7	0
19	12737	314.8	0
19	12737	314.9	0
19	12737	315	0
19	12737	315.1	0
19	12737	315.2	0
19	12737	315.3	0
19	12737	315.4	0
19	12737	315.5	0
19	12737	315.6	0
19	12737	315.7	0
19	12737	315.8	0
19	12737	315.9	0
19	12737	316	0
19	12737	316.1	0
19	12737	316.2	0
19	12737	316.3	0
19	12737	316.4	0
19	12737	316.5	0
19	12737	316.6	0
19	12737	316.7	0
19	12737	316.8	0
19	12737	316.9	0
19	12737	317	0
19	12737	317.1	0
19	12737	317.2	0
19	12737	317.3	0
19	12737	317.4	0
19	12737	317.5	0
19	12737	317.6	0
19	12737	317.7	0
19	12737	317.8	0
19	12737	317.9	0
19	12737	318	0
19	12737	318.1	0
19	12737	318.2	0
19	12737	318.3	0
19	12737	318.4	0
19	12737	318.5	0
19	12737	318.6	0
19	12737	318.7	0
19	12737	318.8	0
19	12737	318.9	0
19	12737	319	0
19	12737	319.1	0
19	12737	319.2	0
19	12737	319.3	0
19	12737	319.4	0
19	12737	319.5	0
19	12737	319.6	0
19	12737	319.7	0
19	12737	319.8	0
19	12737	319.9	0
19	12737	320	0
19	12737	320.1	0
19	12737	320.2	0
19	12737	320.3	0
19	12737	320.4	0
19	12737	320.5	0
19	12737	320.6	0
19	12737	320.7	0
19	12737	320.8	0
19	12737	320.9	0
19	12737	321	0
19	12737	321.1	0
19	12737	321.2	0
19	12737	321.3	0
19	12737	321.4	0
19	12737	321.5	0
19	12737	321.6	0
19	12737	321.7	0
19	12737	321.8	0
19	12737	321.9	0
19	12737	322	0
19	12737	322.1	0
19	12737	322.2	0
19	12737	322.3	0
19	12737	322.4	0
19	12737	322.5	0
19	12737	322.6	0
19	12737	322.7	0
19	12737	322.8	0
19	12737	322.9	0
19	12737	323	0
19	12737	323.1	0
19	12737	323.2	0
19	12737	323.3	0
19	12737	323.4	0
19	12737	323.5	0
19	12737	323.6	0
19	12737	323.7	0
19	12737	323.8	0
19	12737	323.9	0
19	12737	324	0
19	12737	324.1	0
19	12737	324.2	0
19	12737	324.3	0
19	12737	324.4	0
19	12737	324.5	0
19	12737	324.6	0
19	12737	324.7	0
19	12737	324.8	0
19	12737	324.9	0
19	12737	325	0
19	12737	325.1	0
19	12737	325.2	0
19	12737	325.3	0
19	12737	325.4	0
19	12737	325.5	0
19	12737	325.6	0
19	12737	325.7	0
19	12737	325.8	0
19	12737	325.9	0
19	12737	326	0
19	12737	326.1	0
19	12737	326.2	0
19	12737	326.3	0
19	12737	326.4	0
19	12737	326.5	0
19	12737	326.6	0
19	12737	326.7	0
19	12737	326.8	0
19	12737	326.9	0
19	12737	327	0
19	12737	327.1	0
19	12737	327.2	0
19	12737	327.3	0
19	12737	327.4	0
19	12737	327.5	0
19	12737	327.6	0
19	12737	327.7	0
19	12737	327.8	0
19	12737	327.9	0
19	12737	328	0
19	12737	328.1	0
19	12737	328.2	0
19	12737	328.3	0
19	12737	328.4	0
19	12737	328.5	0
19	12737	328.6	0
19	12737	328.7	0
19	12737	328.8	0
19	12737	328.9	0
19	12737	329	0
19	12737	329.1	0
19	12737	329.2	0
19	12737	329.3	0
19	12737	329.4	0
19	12737	329.5	0
19	12737	329.6	0
19	12737	329.7	0
19	12737	329.8	0
19	13226	329.9	8000
19	13226	330	0
19	13226	330.1	0
19	13226	330.2	0
19	13226	330.3	0
19	13226	330.4	0
19	13226	330.5	0
19	13226	330.6	0
19	13226	330.7	0
19	13226	330.8	0
19	13226	330.9	0
19	13226	331	0
19	13226	331.1	0
19	13226	331.2	0
19	13226	331.3	0
19	13226	331.4	0
19	13226	331.5	0
19	13226	331.6	0
19	13226	331.7	0
19	13226	331.8	0
19	13226	331.9	0
19	13226	332	0
19	13226	332.1	0
19	13226	332.2	0
19	13226	332.3	0
19	13226	332.4	0
19	13226	332.5	0
19	13226	332.6	0
19	13226	332.7	0
19	13226	332.8	0
19	13226	332.9	0
19	13226	333	0
19	13226	333.1	0
19	13226	333.2	0
19	13226	333.3	0
19	13226	333.4	0
19	13226	333.5	0
19	13226	333.6	0
19	13226	333.7	0
19	13226	333.8	0
19	13226	333.9	0
19	13226	334	0
19	13226	334.1	0
19	13226	334.2	0
19	13226	334.3	0
19	13226	334.4	0
19	13226	334.5	0
19	13226	334.6	0
19	13226	334.7	0
19	13226	334.8	0
19	13226	334.9	0
19	13226	335	0
19	13226	335.1	0
19	13226	335.2	0
19	13226	335.3	0
19	13226	335.4	0
19	13226	335.5	0
19	13226	335.6	0
19	13226	335.7	0
19	13226	335.8	0
19	13226	335.9	0
19	13226	336	0
19	13226	336.1	0
19	13226	336.2	0
19	13226	336.3	0
19	13226	336.4	0
19	13226	336.5	0
19	13226	336.6	0
19	13226	336.7	0
19	13226	336.8	0
19	13226	336.9	0
19	13226	337	0
19	13226	337.1	0
19	13226	337.2	0
19	13226	337.3	0
19	13226	337.4	0
19	13226	337.5	0
19	13226	337.6	0
19	13226	337.7	0
19	13226	337.8	0
19	13226	337.9	0
19	13226	338	0
19	13226	338.1	0
19	13226	338.2	0
19	13226	338.3	0
19	13226	338.4	0
19	13226	338.5	0
19	13226	338.6	0
19	13226	338.7	0
19	13226	338.8	0
19	13226	338.9	0
19	13226	339	0
19	13226	339.1	0
19	13226	339.2	0
19	13226	339.3	0
19	13226	339.4	0
19	13226	339.5	0
19	13226	339.6	0
19	13226	339.7	0
19	13226	339.8	0
19	13226	339.9	0
19	13226	340	0
19	13226	340.1	0
19	13226	340.2	0
19	13226	340.3	0
19	13226	340.4	0
19	13226	340.5	0
19	13226	340.6	0
19	13226	340.7	0
19	13226	340.8	0
19	13226	340.9	0
19	13226	341	0
19	13226	341.1	0
19	13226	341.2	0
19	13226	341.3	0
19	13226	341.4	0
19	13226	341.5	0
19	13226	341.6	0
19	13226	341.7	0
19	13226	341.8	0
19	13226	341.9	0
19	13226	342	0
19	13226	342.1	0
19	13226	342.2	0
19	13226	342.3	0
19	13226	342.4	0
19	13226	342.5	0
19	13226	342.6	0
19	13226	342.7	0
19	13226	342.8	0
19	13226	342.9	0
19	13226	343	0
19	13226	343.1	0
19	13226	343.2	0
19	13226	343.3	0
19	13226	343.4	0
19	13226	343.5	0
19	13226	343.6	0
19	13226	343.7	0
19	13226	343.8	0
19	13226	343.9	0
19	13226	344	0
19	13226	344.1	0
19	13226	344.2	0
19	13226	344.3	0
19	13226	344.4	0
19	13226	344.5	0
19	13226	344.6	0
19	13226	344.7	0
19	13226	344.8	0
19	13226	344.9	0
19	13226	345	0
19	13226	345.1	0
19	13373	345.2	8000
19	13373	345.3	0
19	13373	345.4	0
[...]
123	137531	3499.1	0
123	137531	3499.2	0
123	137531	3499.3	0
123	137531	3499.4	0
123	137531	3499.5	0
123	137531	3499.6	0
123	137531	3499.7	0
123	137531	3499.8	0
123	137531	3499.9	0
123	137531	3500	0
123	137531	3500.1	0
123	137531	3500.2	0
123	137531	3500.3	0
123	137531	3500.4	0
123	137531	3500.5	0
123	137531	3500.6	0
123	137531	3500.7	0
123	137531	3500.8	0
123	137531	3500.9	0
123	137531	3501	0
123	137531	3501.1	0
123	137531	3501.2	0
123	137531	3501.3	0
123	137531	3501.4	0
123	137531	3501.5	0
123	137531	3501.6	0
123	137531	3501.7	0
123	137531	3501.8	0
123	137531	3501.9	0
123	137531	3502	0
123	137531	3502.1	0
123	137531	3502.2	0
123	137531	3502.3	0
123	137531	3502.4	0
123	137531	3502.5	0
123	137531	3502.6	0
123	137531	3502.7	0
123	137531	3502.8	0
123	137531	3502.9	0
123	137531	3503	0
123	137531	3503.1	0
123	137531	3503.2	0
123	137531	3503.3	0
123	137531	3503.4	0
123	137531	3503.5	0
123	137531	3503.6	0
123	137531	3503.7	0
123	137531	3503.8	0
123	137531	3503.9	0
123	137531	3504	0
123	137531	3504.1	0
123	137531	3504.2	0
123	137531	3504.3	0
123	137531	3504.4	0
123	137531	3504.5	0
123	137531	3504.6	0
123	137531	3504.7	0
123	137531	3504.8	0
123	137531	3504.9	0
123	137531	3505	0
123	137531	3505.1	0
123	137531	3505.2	0
123	137531	3505.3	0
123	137531	3505.4	0
123	137531	3505.5	0
123	137531	3505.6	0
123	137531	3505.7	0
123	137531	3505.8	0
123	137531	3505.9	0
123	137531	3506	0
123	137531	3506.1	0
123	137531	3506.2	0
123	137531	3506.3	0
123	137531	3506.4	0
123	137531	3506.5	0
123	137531	3506.6	0
123	137531	3506.7	0
123	137531	3506.8	0
123	137531	3506.9	0
123	137531	3507	0
123	137531	3507.1	0
123	137531	3507.2	0
123	137531	3507.3	0
123	137531	3507.4	0
123	137531	3507.5	0
123	137531	3507.6	0
123	137531	3507.7	0
123	137531	3507.8	0
123	137531	3507.9	0
123	137531	3508	0
123	137531	3508.1	0
123	137531	3508.2	0
123	137531	3508.3	0
123	137531	3508.4	0
123	137531	3508.5	0
123	137531	3508.6	0
123	137531	3508.7	0
123	137531	3508.8	0
123	137531	3508.9	0
123	137531	3509	0
123	137531	3509.1	0
123	137531	3509.2	0
123	137531	3509.3	0
123	137531	3509.4	0
123	137531	3509.5	0
123	137531	3509.6	0
123	137531	3509.7	0
123	137531	3509.8	0
123	137531	3509.9	0
123	137531	3510	0
123	137531	3510.1	0
123	137531	3510.2	0
123	137531	3510.3	0
123	137531	3510.4	0
123	137531	3510.5	0
123	137531	3510.6	0
123	137531	3510.7	0
123	137531	3510.8	0
123	137531	3510.9	0
123	137531	3511	0
123	137531	3511.1	0
123	137531	3511.2	0
123	137531	3511.3	0
123	137531	3511.4	0
123	137531	3511.5	0
123	137531	3511.6	0
123	137531	3511.7	0
123	137531	3511.8	0
123	137531	3511.9	0
123	137531	3512	0
123	137531	3512.1	0
123	137531	3512.2	0
123	137531	3512.3	0
123	137531	3512.4	0
123	137531	3512.5	0
123	137531	3512.6	0
123	137531	3512.7	0
123	137531	3512.8	0
123	137531	3512.9	0
123	137531	3513	0
123	137531	3513.1	0
123	137531	3513.2	0
123	137531	3513.3	0
123	137531	3513.4	0
123	137531	3513.5	0
123	137531	3513.6	0
123	137531	3513.7	0
123	137531	3513.8	0
123	137531	3513.9	0
123	137531	3514	0
123	137531	3514.1	0
123	137531	3514.2	0
123	137531	3514.3	0
123	137531	3514.4	0
123	137531	3514.5	0
123	137531	3514.6	0
123	137531	3514.7	0
123	137531	3514.8	0
123	137531	3514.9	0
123	137531	3515	0
123	137531	3515.1	0
123	137531	3515.2	0
123	137531	3515.3	0
123	137531	3515.4	0
123	137531	3515.5	0
123	137531	3515.6	0
123	137531	3515.7	0
123	137531	3515.8	0
123	137531	3515.9	0
123	137531	3516	0
123	137531	3516.1	0
123	137531	3516.2	0
123	137531	3516.3	0
123	137531	3516.4	0
123	137531	3516.5	0
123	137531	3516.6	0
123	137531	3516.7	0
123	137531	3516.8	0
123	137531	3516.9	0
123	137531	3517	0
123	137531	3517.1	0
123	137531	3517.2	0
123	137531	3517.3	0
123	137531	3517.4	0
123	137531	3517.5	0
123	137531	3517.6	0
123	137531	3517.7	0
123	137531	3517.8	0
123	137531	3517.9	0
123	137531	3518	0
123	137531	3518.1	0
123	137531	3518.2	0
123	137531	3518.3	0
123	137531	3518.4	0
123	137531	3518.5	0
123	137531	3518.6	0
123	137531	3518.7	0
123	137531	3518.8	0
123	137531	3518.9	0
123	137531	3519	0
123	137531	3519.1	0
123	137531	3519.2	0
123	137531	3519.3	0
123	137531	3519.4	0
123	137531	3519.5	0
123	137531	3519.6	0
123	137531	3519.7	0
123	137531	3519.8	0
123	137531	3519.9	0
123	137531	3520	0
123	137531	3520.1	0
123	137531	3520.2	0
123	137531	3520.3	0
123	137531	3520.4	0
123	137531	3520.5	0
123	137531	3520.6	0
123	137531	3520.7	0
123	137531	3520.8	0
123	137531	3520.9	0
123	137531	3521	0
123	137531	3521.1	0
123	137531	3521.2	0
123	137531	3521.3	0
123	137531	3521.4	0
123	137531	3521.5	0
123	137531	3521.6	0
123	137531	3521.7	0
123	137531	3521.8	0
123	137531	3521.9	0
123	137531	3522	0
123	137531	3522.1	0
123	137531	3522.2	0
123	137531	3522.3	0
123	137531	3522.4	0
123	137531	3522.5	0
123	137531	3522.6	0
123	137531	3522.7	0
123	137531	3522.8	0
123	137531	3522.9	0
123	137531	3523	0
123	137531	3523.1	0
123	137531	3523.2	0
123	137531	3523.3	0
123	137531	3523.4	0
123	137531	3523.5	0
123	137531	3523.6	0
123	137531	3523.7	0
123	137531	3523.8	0
123	137531	3523.9	0
123	137531	3524	0
123	137531	3524.1	0
123	137531	3524.2	0
123	137531	3524.3	0
123	137531	3524.4	0
123	137531	3524.5	0
123	137531	3524.6	0
123	137531	3524.7	0
123	137531	3524.8	0
123	137531	3524.9	0
123	137531	3525	0
123	137531	3525.1	0
123	137531	3525.2	0
123	137531	3525.3	0
123	137531	3525.4	0
123	137531	3525.5	0
123	137531	3525.6	0
123	137531	3525.7	0
123	137531	3525.8	0
123	137531	3525.9	0
123	137531	3526	0
123	137531	3526.1	0
123	137531	3526.2	0
123	137531	3526.3	0
123	137531	3526.4	0
123	137531	3526.5	0
123	137531	3526.6	0
123	137531	3526.7	0
123	137531	3526.8	0
123	137531	3526.9	0
123	137531	3527	0
123	137531	3527.1	0
123	137531	3527.2	0
123	137531	3527.3	0
123	137531	3527.4	0
123	137531	3527.5	0
123	137531	3527.6	0
123	137531	3527.7	0
123	137531	3527.8	0
123	137531	3527.9	0
123	137531	3528	0
123	137531	3528.1	0
123	137531	3528.2	0
123	137531	3528.3	0
123	137531	3528.4	0
123	137531	3528.5	0
123	137531	3528.6	0
123	137531	3528.7	0
123	137531	3528.8	0
123	137531	3528.9	0
123	137531	3529	0
123	137531	3529.1	0
123	137531	3529.2	0
123	137531	3529.3	0
123	137531	3529.4	0
123	137531	3529.5	0
123	137531	3529.6	0
123	137531	3529.7	0
123	137531	3529.8	0
123	137531	3529.9	0
123	137531	3530	0
123	137531	3530.1	0
123	137531	3530.2	0
123	137531	3530.3	0
123	137531	3530.4	0
123	137531	3530.5	0
123	137531	3530.6	0
123	137531	3530.7	0
123	137531	3530.8	0
123	137531	3530.9	0
123	137531	3531	0
123	137531	3531.1	0
123	137531	3531.2	0
123	137531	3531.3	0
123	137531	3531.4	0
123	137531	3531.5	0
123	137531	3531.6	0
123	137531	3531.7	0
123	137531	3531.8	0
123	137531	3531.9	0
123	137531	3532	0
123	137531	3532.1	0
123	137531	3532.2	0
123	137531	3532.3	0
123	137531	3532.4	0
123	137531	3532.5	0
123	137531	3532.6	0
123	137531	3532.7	0
123	137531	3532.8	0
123	137531	3532.9	0
123	137531	3533	0
123	137531	3533.1	0
123	137531	3533.2	0
123	137531	3533.3	0
123	137531	3533.4	0
123	137531	3533.5	0
123	137531	3533.6	0
123	137531	3533.7	0
123	137531	3533.8	0
123	137531	3533.9	0
123	137531	3534	0
123	137531	3534.1	0
123	137531	3534.2	0
123	137531	3534.3	0
123	137531	3534.4	0
123	137531	3534.5	0
123	137531	3534.6	0
123	137531	3534.7	0
123	137531	3534.8	0
123	137531	3534.9	0
123	137531	3535	0
123	137531	3535.1	0
123	137531	3535.2	0
123	137531	3535.3	0
123	137531	3535.4	0
123	137531	3535.5	0
123	137531	3535.6	0
123	137531	3535.7	0
123	137531	3535.8	0
123	137531	3535.9	0
123	137531	3536	0
123	137531	3536.1	0
123	137531	3536.2	0
123	137531	3536.3	0
123	137531	3536.4	0
123	137531	3536.5	0
123	137531	3536.6	0
123	137531	3536.7	0
123	137531	3536.8	0
123	137531	3536.9	0
123	137531	3537	0
123	137531	3537.1	0
123	137531	3537.2	0
123	137531	3537.3	0
123	137531	3537.4	0
123	137531	3537.5	0
123	137531	3537.6	0
123	137531	3537.7	0
123	137531	3537.8	0
123	137531	3537.9	0
123	137531	3538	0
123	137531	3538.1	0
123	137531	3538.2	0
123	137531	3538.3	0
123	137531	3538.4	0
123	137531	3538.5	0
123	137531	3538.6	0
123	137531	3538.7	0
123	137531	3538.8	0
123	137531	3538.9	0
123	137531	3539	0
123	137531	3539.1	0
123	137531	3539.2	0
123	137531	3539.3	0
123	137531	3539.4	0
123	137531	3539.5	0
123	137531	3539.6	0
123	137531	3539.7	0
123	137531	3539.8	0
123	137531	3539.9	0
123	137531	3540	0
123	137531	3540.1	0
123	137531	3540.2	0
123	137531	3540.3	0
123	137531	3540.4	0
123	137531	3540.5	0
123	137531	3540.6	0
123	137531	3540.7	0
123	137531	3540.8	0
123	137531	3540.9	0
123	137531	3541	0
123	137531	3541.1	0
123	137531	3541.2	0
123	137531	3541.3	0
123	137531	3541.4	0
123	137531	3541.5	0
123	137531	3541.6	0
123	137531	3541.7	0
123	137531	3541.8	0
123	137531	3541.9	0
123	137531	3542	0
123	137531	3542.1	0
123	137531	3542.2	0
123	137531	3542.3	0
123	137531	3542.4	0
123	137531	3542.5	0
123	137531	3542.6	0
123	137531	3542.7	0
123	137531	3542.8	0
123	137531	3542.9	0
123	137531	3543	0
123	137531	3543.1	0
123	137531	3543.2	0
123	137531	3543.3	0
123	137531	3543.4	0
123	137531	3543.5	0
123	137531	3543.6	0
123	137531	3543.7	0
123	137531	3543.8	0
123	137531	3543.9	0
123	137531	3544	0
123	137531	3544.1	0
123	137531	3544.2	0
123	137531	3544.3	0
123	137531	3544.4	0
123	137531	3544.5	0
123	137531	3544.6	0
123	137531	3544.7	0
123	137531	3544.8	0
123	137531	3544.9	0
123	137531	3545	0
123	137531	3545.1	0
123	137531	3545.2	0
123	137531	3545.3	0
123	137531	3545.4	0
123	137531	3545.5	0
123	137531	3545.6	0
123	137531	3545.7	0
123	137531	3545.8	0
123	137531	3545.9	0
123	137531	3546	0
123	137531	3546.1	0
123	137531	3546.2	0
123	137531	3546.3	0
123	137531	3546.4	0
123	137531	3546.5	0
123	137531	3546.6	0
123	137531	3546.7	0
123	137531	3546.8	0
123	137531	3546.9	0
123	137531	3547	0
123	137531	3547.1	0
123	137531	3547.2	0
123	137531	3547.3	0
123	137531	3547.4	0
123	137531	3547.5	0
123	137531	3547.6	0
123	137531	3547.7	0
123	137531	3547.8	0
123	137531	3547.9	0
123	137531	3548	0
123	137531	3548.1	0
123	137531	3548.2	0
123	137531	3548.3	0
123	137531	3548.4	0
123	137531	3548.5	0
123	137531	3548.6	0
123	137531	3548.7	0
123	137531	3548.8	0
123	137531	3548.9	0
123	137531	3549	0
123	137531	3549.1	0
123	137531	3549.2	0
123	137531	3549.3	0
123	137531	3549.4	0
123	137531	3549.5	0
123	137531	3549.6	0
123	137531	3549.7	0
123	137531	3549.8	0
123	137531	3549.9	0
123	137531	3550	0
123	137531	3550.1	0
123	137531	3550.2	0
123	137531	3550.3	0
123	137531	3550.4	0
123	137531	3550.5	0
123	137531	3550.6	0
123	137531	3550.7	0
123	137531	3550.8	0
123	137531	3550.9	0
123	137531	3551	0
123	137531	3551.1	0
123	137531	3551.2	0
123	137531	3551.3	0
123	137531	3551.4	0
123	137531	3551.5	0
123	137531	3551.6	0
123	137531	3551.7	0
123	137531	3551.8	0
123	137531	3551.9	0
123	137531	3552	0
123	137531	3552.1	0
123	137531	3552.2	0
123	137531	3552.3	0
123	137531	3552.4	0
123	137531	3552.5	0
123	137531	3552.6	0
123	137531	3552.7	0
123	137531	3552.8	0
123	137531	3552.9	0
123	137531	3553	0
123	137531	3553.1	0
123	137531	3553.2	0
123	137531	3553.3	0
123	137531	3553.4	0
123	137531	3553.5	0
123	137531	3553.6	0
123	137531	3553.7	0
123	137531	3553.8	0
123	137531	3553.9	0
123	137531	3554	0
123	137531	3554.1	0
123	137531	3554.2	0
123	137531	3554.3	0
123	137531	3554.4	0
123	137531	3554.5	0
123	137531	3554.6	0
123	137531	3554.7	0
123	137531	3554.8	0
123	137531	3554.9	0
123	137531	3555	0
123	137531	3555.1	0
123	137531	3555.2	0
123	137531	3555.3	0
123	137531	3555.4	0
123	137531	3555.5	0
123	137531	3555.6	0
123	137531	3555.7	0
123	137531	3555.8	0
123	137531	3555.9	0
123	137531	3556	0
123	137531	3556.1	0
123	137531	3556.2	0
123	137531	3556.3	0
123	137531	3556.4	0
123	137531	3556.5	0
123	137531	3556.6	0
123	137531	3556.7	0
123	137531	3556.8	0
123	137531	3556.9	0
123	137531	3557	0
123	137531	3557.1	0
123	137531	3557.2	0
123	137531	3557.3	0
123	137531	3557.4	0
123	137531	3557.5	0
123	137531	3557.6	0
123	137531	3557.7	0
123	137531	3557.8	0
123	137531	3557.9	0
123	137531	3558	0
123	137531	3558.1	0
123	137531	3558.2	0
123	137531	3558.3	0
123	137531	3558.4	0
123	137531	3558.5	0
123	137531	3558.6	0
123	137531	3558.7	0
123	137531	3558.8	0
123	137531	3558.9	0
123	137531	3559	0
123	137531	3559.1	0
123	137531	3559.2	0
123	137531	3559.3	0
123	137531	3559.4	0
123	137531	3559.5	0
123	137531	3559.6	0
123	137531	3559.7	0
123	137531	3559.8	0
123	137531	3559.9	0
123	137531	3560	0
123	137531	3560.1	0
123	137531	3560.2	0
123	137531	3560.3	0
123	137531	3560.4	0
123	137531	3560.5	0
123	137531	3560.6	0
123	137531	3560.7	0
123	137531	3560.8	0
123	137531	3560.9	0
123	137531	3561	0
123	137531	3561.1	0
123	137531	3561.2	0
123	137531	3561.3	0
123	137531	3561.4	0
123	137531	3561.5	0
123	137531	3561.6	0
123	137531	3561.7	0
123	137531	3561.8	0
123	137531	3561.9	0
123	137531	3562	0
123	137531	3562.1	0
123	137531	3562.2	0
123	137531	3562.3	0
123	137531	3562.4	0
123	137531	3562.5	0
123	137531	3562.6	0
123	137531	3562.7	0
123	137531	3562.8	0
123	137531	3562.9	0
123	137531	3563	0
123	137531	3563.1	0
123	137531	3563.2	0
123	137531	3563.3	0
123	137531	3563.4	0
123	137531	3563.5	0
123	137531	3563.6	0
123	137531	3563.7	0
123	137531	3563.8	0
123	137531	3563.9	0
123	137531	3564	0
123	137531	3564.1	0
123	137531	3564.2	0
123	137531	3564.3	0
123	137531	3564.4	0
123	137531	3564.5	0
123	137531	3564.6	0
123	137531	3564.7	0
123	137531	3564.8	0
123	137531	3564.9	0
123	137531	3565	0
123	137531	3565.1	0
123	137531	3565.2	0
123	137531	3565.3	0
123	137531	3565.4	0
123	137531	3565.5	0
123	137531	3565.6	0
123	137531	3565.7	0
123	137531	3565.8	0
123	137531	3565.9	0
123	137531	3566	0
123	137531	3566.1	0
123	137531	3566.2	0
123	137531	3566.3	0
123	137531	3566.4	0
123	137531	3566.5	0
123	137531	3566.6	0
123	137531	3566.7	0
123	137531	3566.8	0
123	137531	3566.9	0
123	137531	3567	0
123	137531	3567.1	0
123	137531	3567.2	0
123	137531	3567.3	0
123	137531	3567.4	0
123	137531	3567.5	0
123	137531	3567.6	0
123	137531	3567.7	0
123	137531	3567.8	0
123	137531	3567.9	0
123	137531	3568	0
123	137531	3568.1	0
123	137531	3568.2	0
123	137531	3568.3	0
123	137531	3568.4	0
123	137531	3568.5	0
123	137531	3568.6	0
123	137531	3568.7	0
123	137531	3568.8	0
123	137531	3568.9	0
123	137531	3569	0
123	137531	3569.1	0
123	137531	3569.2	0
123	137531	3569.3	0
123	137531	3569.4	0
123	137531	3569.5	0
123	137531	3569.6	0
123	137531	3569.7	0
123	137531	3569.8	0
123	137531	3569.9	0
123	137531	3570	0
123	137531	3570.1	0
123	137531	3570.2	0
123	137531	3570.3	0
123	137531	3570.4	0
123	137531	3570.5	0
123	137531	3570.6	0
123	137531	3570.7	0
123	137531	3570.8	0
123	137531	3570.9	0
123	137531	3571	0
123	137531	3571.1	0
123	137531	3571.2	0
123	137531	3571.3	0
123	137531	3571.4	0
123	137531	3571.5	0
123	137531	3571.6	0
123	137531	3571.7	0
123	137531	3571.8	0
123	137531	3571.9	0
123	137531	3572	0
123	137531	3572.1	0
123	137531	3572.2	0
123	137531	3572.3	0
123	137531	3572.4	0
123	137531	3572.5	0
123	137531	3572.6	0
123	137531	3572.7	0
123	137531	3572.8	0
123	137531	3572.9	0
123	137531	3573	0
123	137531	3573.1	0
123	137531	3573.2	0
123	137531	3573.3	0
123	137531	3573.4	0
123	137531	3573.5	0
123	137531	3573.6	0
123	137531	3573.7	0
123	137531	3573.8	0
123	137531	3573.9	0
123	137531	3574	0
123	137531	3574.1	0
123	137531	3574.2	0
123	137531	3574.3	0
123	137531	3574.4	0
123	137531	3574.5	0
123	137531	3574.6	0
123	137531	3574.7	0
123	137531	3574.8	0
123	137531	3574.9	0
123	137531	3575	0
123	137531	3575.1	0
123	137531	3575.2	0
123	137531	3575.3	0
123	137531	3575.4	0
123	137531	3575.5	0
123	137531	3575.6	0
123	137531	3575.7	0
123	137531	3575.8	0
123	137531	3575.9	0
123	137531	3576	0
123	137531	3576.1	0
123	137531	3576.2	0
123	137531	3576.3	0
123	137531	3576.4	0
123	137531	3576.5	0
123	137531	3576.6	0
123	137531	3576.7	0
123	137531	3576.8	0
123	137531	3576.9	0
123	137531	3577	0
123	137531	3577.1	0
123	137531	3577.2	0
123	137531	3577.3	0
123	137531	3577.4	0
123	137531	3577.5	0
123	137531	3577.6	0
123	137531	3577.7	0
123	137531	3577.8	0
123	137531	3577.9	0
123	137531	3578	0
123	137531	3578.1	0
123	137531	3578.2	0
123	137531	3578.3	0
123	137531	3578.4	0
123	137531	3578.5	0
123	137531	3578.6	0
123	137531	3578.7	0
123	137531	3578.8	0
123	137531	3578.9	0
123	137531	3579	0
123	137531	3579.1	0
123	137531	3579.2	0
123	137531	3579.3	0
123	137531	3579.4	0
123	137531	3579.5	0
123	137531	3579.6	0
123	137531	3579.7	0
123	137531	3579.8	0
123	137531	3579.9	0
123	137531	3580	0
123	137531	3580.1	0
123	137531	3580.2	0
123	137531	3580.3	0
123	137531	3580.4	0
123	137531	3580.5	0
123	137531	3580.6	0
123	137531	3580.7	0
123	137531	3580.8	0
123	137531	3580.9	0
123	137531	3581	0
123	137531	3581.1	0
123	137531	3581.2	0
123	137531	3581.3	0
123	137531	3581.4	0
123	137531	3581.5	0
123	137531	3581.6	0
123	137531	3581.7	0
123	137531	3581.8	0
123	137531	3581.9	0
123	137531	3582	0
123	137531	3582.1	0
123	137531	3582.2	0
123	137531	3582.3	0
123	137531	3582.4	0
123	137531	3582.5	0
123	137531	3582.6	0
123	137531	3582.7	0
123	137531	3582.8	0
123	137531	3582.9	0
123	137531	3583	0
123	137531	3583.1	0
123	137531	3583.2	0
123	137531	3583.3	0
123	137531	3583.4	0
123	137531	3583.5	0
123	137531	3583.6	0
123	137531	3583.7	0
123	137531	3583.8	0
123	137531	3583.9	0
123	137531	3584	0
123	137531	3584.1	0
123	137531	3584.2	0
123	137531	3584.3	0
123	137531	3584.4	0
123	137531	3584.5	0
123	137531	3584.6	0
123	137531	3584.7	0
123	137531	3584.8	0
123	137531	3584.9	0
123	137531	3585	0
123	137531	3585.1	0
123	137531	3585.2	0
123	137531	3585.3	0
123	137531	3585.4	0
123	137531	3585.5	0
123	137531	3585.6	0
123	137531	3585.7	0
123	137531	3585.8	0
123	137531	3585.9	0
123	137531	3586	0
123	137531	3586.1	0
123	137531	3586.2	0
123	137531	3586.3	0
123	137531	3586.4	0
123	137531	3586.5	0
123	137531	3586.6	0
123	137531	3586.7	0
123	137531	3586.8	0
123	137531	3586.9	0
123	137531	3587	0
123	137531	3587.1	0
123	137531	3587.2	0
123	137531	3587.3	0
123	137531	3587.4	0
123	137531	3587.5	0
123	137531	3587.6	0
123	137531	3587.7	0
123	137531	3587.8	0
123	137531	3587.9	0
123	137531	3588	0
123	137531	3588.1	0
123	137531	3588.2	0
123	137531	3588.3	0
123	137531	3588.4	0
123	137531	3588.5	0
123	137531	3588.6	0
123	137531	3588.7	0
123	137531	3588.8	0
123	137531	3588.9	0
123	137531	3589	0
123	137531	3589.1	0
123	137531	3589.2	0
123	137531	3589.3	0
123	137531	3589.4	0
123	137531	3589.5	0
123	137531	3589.6	0
123	137531	3589.7	0
123	137531	3589.8	0
123	137531	3589.9	0
123	137531	3590	0
123	137531	3590.1	0
123	137531	3590.2	0
123	137531	3590.3	0
123	137531	3590.4	0
123	137531	3590.5	0
123	137531	3590.6	0
123	137531	3590.7	0
123	137531	3590.8	0
123	137531	3590.9	0
123	137531	3591	0
123	137531	3591.1	0
123	137531	3591.2	0
123	137531	3591.3	0
123	137531	3591.4	0
123	137531	3591.5	0
123	137531	3591.6	0
123	137531	3591.7	0
123	137531	3591.8	0
123	137531	3591.9	0
123	137531	3592	0
123	137531	3592.1	0
123	137531	3592.2	0
123	137531	3592.3	0
123	137531	3592.4	0
123	137531	3592.5	0
123	137531	3592.6	0
123	137531	3592.7	0
123	137531	3592.8	0
123	137531	3592.9	0
123	137531	3593	0
123	137531	3593.1	0
123	137531	3593.2	0
123	137531	3593.3	0
123	137531	3593.4	0
123	137531	3593.5	0
123	137531	3593.6	0
123	137531	3593.7	0
123	137531	3593.8	0
123	137531	3593.9	0
123	137531	3594	0
123	137531	3594.1	0
123	137531	3594.2	0
123	137531	3594.3	0
123	137531	3594.4	0
123	137531	3594.5	0
123	137531	3594.6	0
123	137531	3594.7	0
123	137531	3594.8	0
123	137531	3594.9	0
123	137531	3595	0
123	137531	3595.1	0
123	137531	3595.2	0
123	137531	3595.3	0
123	137531	3595.4	0
123	137531	3595.5	0
123	137531	3595.6	0
123	137531	3595.7	0
123	137531	3595.8	0
123	137531	3595.9	0
123	137531	3596	0
123	137531	3596.1	0
123	137531	3596.2	0
123	137531	3596.3	0
123	137531	3596.4	0
123	137531	3596.5	0
123	137531	3596.6	0
123	137531	3596.7	0
123	137531	3596.8	0
123	137531	3596.9	0
123	137531	3597	0
123	137531	3597.1	0
123	137531	3597.2	0
123	137531	3597.3	0
123	137531	3597.4	0
123	137531	3597.5	0
123	137531	3597.6	0
123	137531	3597.7	0
123	137531	3597.8	0
123	137531	3597.9	0
123	137531	3598	0
123	137531	3598.1	0
123	137531	3598.2	0
123	137531	3598.3	0
123	137531	3598.4	0
123	137531	3598.5	0
123	137531	3598.6	0
123	137531	3598.7	0
123	137531	3598.8	0
123	137531	3598.9	0
123	137531	3599	0
123	137531	3599.1	0
123	137531	3599.2	0
123	137531	3599.3	0
123	137531	3599.4	0
123	137531	3599.5	0
123	137531	3599.6	0
123	137531	3599.7	0
123	137531	3599.8	0
123	137531	3599.9	0
123	137531	3600	0

