version 2
run General-4-20221116-17:00:18-51895
attr configname General
attr datetime 20221116-17:00:18
attr experiment General
attr inifile omnetpp.ini
attr iterationvars ""
attr iterationvarsf ""
attr measurement ""
attr network Scenario
attr processid 51895
attr repetition 4
attr replication #4
attr resultdir results
attr runnumber 4
attr seedset 4
param *.hosts 3
param **.constraintAreaMinX 0m
param **.constraintAreaMinY 0m
param **.constraintAreaMinZ 0m
param **.constraintAreaMaxX 600m
param **.constraintAreaMaxY 400m
param **.constraintAreaMaxZ 0m
param **.host*.ipv4.configurator.typename "\"HostAutoConfigurator\""
param **.host*.ipv4.configurator.interfaces "\"wlan0\""
param **.host*.mobility.typename "\"MassMobility\""
param **.host*.mobility.initFromDisplayString false
param **.host*.mobility.changeInterval "truncnormal(2s, 0.5s)"
param **.host*.mobility.angleDelta "normal(0deg, 30deg)"
param **.host*.mobility.speed "truncnormal(20mps, 8mps)"
param **.host*.mobility.updateInterval 100ms
param **.host*.numApps 1
param **.app[0].typename "\"UdpBasicApp\""
param **.app[0].destAddresses "\"host[0]\""
param **.app[0].localPort 9001
param **.app[0].destPort 9001
param **.app[0].messageLength 100B
param **.app[0].startTime "uniform(10s, 30s)"
param **.app[0].sendInterval "uniform(10s, 30s)"
param **.wlan[*].bitrate 2Mbps
param **.wlan[*].mac.dcf.channelAccess.cwMin 7
param **.wlan[*].radio.transmitter.power 2mW
param **.wlan[*].radio.receiver.sensitivity -85dBm
param **.wlan[*].radio.receiver.snirThreshold 4dB

vector 0 Scenario.host[0].wlan[0].radio radioMode:vector ETV
attr interpolationmode sample-hold
attr source radioModeChanged
attr title "Radio mode, vector"
vector 1 Scenario.host[0].wlan[0].radio radioChannel:vector ETV
attr interpolationmode sample-hold
attr source radioChannelChanged
attr title "Radio channel, vector"
vector 2 Scenario.host[1].wlan[0].radio radioMode:vector ETV
attr interpolationmode sample-hold
attr source radioModeChanged
attr title "Radio mode, vector"
vector 3 Scenario.host[1].wlan[0].radio radioChannel:vector ETV
attr interpolationmode sample-hold
attr source radioChannelChanged
attr title "Radio channel, vector"
vector 4 Scenario.host[2].wlan[0].radio radioMode:vector ETV
attr interpolationmode sample-hold
attr source radioModeChanged
attr title "Radio mode, vector"
vector 5 Scenario.host[2].wlan[0].radio radioChannel:vector ETV
attr interpolationmode sample-hold
attr source radioChannelChanged
attr title "Radio channel, vector"
vector 6 Scenario.host[0].wlan[0].radio receptionState:vector ETV
attr interpolationmode sample-hold
attr source receptionStateChanged
attr title "Radio reception state, vector"
vector 7 Scenario.host[1].wlan[0].radio receptionState:vector ETV
attr interpolationmode sample-hold
attr source receptionStateChanged
attr title "Radio reception state, vector"
vector 8 Scenario.host[2].wlan[0].radio receptionState:vector ETV
attr interpolationmode sample-hold
attr source receptionStateChanged
attr title "Radio reception state, vector"
vector 9 Scenario.host[0].wlan[0].mac.dcf.recoveryProcedure contentionWindowChanged:vector ETV
attr interpolationmode sample-hold
attr title "contention window, vector"
vector 10 Scenario.host[1].wlan[0].mac.dcf.recoveryProcedure contentionWindowChanged:vector ETV
attr interpolationmode sample-hold
attr title "contention window, vector"
vector 11 Scenario.host[2].wlan[0].mac.dcf.recoveryProcedure contentionWindowChanged:vector ETV
attr interpolationmode sample-hold
attr title "contention window, vector"
vector 12 Scenario.host[2].app[0] packetSent:vector(packetBytes) ETV
attr interpolationmode none
attr source packetSent
attr title "packets sent, vector(packetBytes)"
vector 13 Scenario.host[2].udp packetSent:vector(packetBytes) ETV
attr interpolationmode none
attr source packetSent
attr title "packets sent, vector(packetBytes)"
vector 14 Scenario.host[2].ipv4.arp arpRequestSent:vector(packetBytes) ETV
attr source arpRequestSent
attr title "ARP request sent, vector(packetBytes)"
vector 15 Scenario.host[2].wlan[0].mac packetReceivedFromUpper:vector(packetBytes) ETV
attr interpolationmode none
attr title "packets received from upper layer, vector(packetBytes)"
vector 16 Scenario.host[2].wlan[0].mac.dcf.channelAccess.pendingQueue packetPushed:vector(packetBytes) ETV
attr interpolationmode none
attr title "packet pushed, vector(packetBytes)"
vector 17 Scenario.host[2].wlan[0].mac.dcf.channelAccess.pendingQueue queueLength:vector ETV
attr interpolationmode sample-hold
attr source "count(packetPushed) - count(packetPopped) - count(packetRemoved) - count(packetDropped)"
attr title "queue length, vector"
vector 18 Scenario.host[2].wlan[0].mac.dcf.channelAccess.contention backoffPeriodGenerated:vector ETV
attr interpolationmode none
attr title "backoff periods, vector"
vector 19 Scenario.host[2].wlan[0].mac.dcf.channelAccess.contention backoffActive:vector ETV
attr interpolationmode sample-hold
attr source count(backoffStarted)-count(backoffStopped)
attr title "backoff active, vector"
vector 20 Scenario.host[2].wlan[0].mac.dcf.channelAccess.pendingQueue packetPopped:vector(packetBytes) ETV
attr interpolationmode none
attr title "packet popped, vector(packetBytes)"
vector 21 Scenario.host[2].wlan[0].mac.dcf.channelAccess.pendingQueue queueingTime:vector ETV
attr interpolationmode none
attr source queueingTime(packetPopped)
attr title "queueing times, vector"
attr unit s
vector 22 Scenario.host[2].wlan[0].mac.dcf.channelAccess.inProgressFrames queueLength:vector ETV
attr interpolationmode sample-hold
attr source "count(packetEnqueued) - count(packetDequeued)"
attr title "queue length, vector"
vector 23 Scenario.host[2].wlan[0].mac.dcf datarateSelected:vector ETV
attr interpolationmode none
attr title "datarates selected, vector"
vector 24 Scenario.host[2].wlan[0].mac packetSentToLower:vector(packetBytes) ETV
attr interpolationmode none
attr title "packets sent to lower layer, vector(packetBytes)"
vector 25 Scenario.host[2].wlan[0].mac.dcf frameSequenceActive:vector ETV
attr interpolationmode sample-hold
attr source count(frameSequenceStarted)-count(frameSequenceFinished)
attr title "frame sequence active, vector"
vector 26 Scenario.host[2].wlan[0].radio transmissionState:vector ETV
attr interpolationmode sample-hold
attr source transmissionStateChanged
attr title "Radio transmission state, vector"
vector 27 Scenario.host[2].wlan[0].mac.dcf packetSentToPeer:vector(packetBytes) ETV
attr interpolationmode none
attr title "packets sent, vector(packetBytes)"
vector 28 Scenario.host[2].wlan[0].mac.dcf packetSentToPeerMulticast:vector(packetBytes) ETV
attr interpolationmode none
attr source ieee80211Multicast(packetSentToPeer)
attr title "packets sent: multicast, vector(packetBytes)"
vector 29 Scenario.host[2].wlan[0].mac.dcf packetSentToPeerBroadcast:vector(packetBytes) ETV
attr interpolationmode none
attr source ieee80211Broadcast(packetSentToPeer)
attr title "packets sent: broadcast , vector(packetBytes)"
vector 30 Scenario.host[2].wlan[0].mac.dcf packetSentToPeerWithoutRetry:vector(packetBytes) ETV
attr interpolationmode none
attr source ieee80211NotRetry(packetSentToPeer)
attr title "packets sent: without retry, vector(packetBytes)"
vector 31 Scenario.host[2].wlan[0].mac.dcf.channelAccess.inProgressFrames queueingTime:vector ETV
attr interpolationmode none
attr source queueingTime(packetDequeued)
attr title "queueing times, vector"
vector 32 Scenario.host[1].wlan[0].mac packetReceivedFromLower:vector(packetBytes) ETV
attr interpolationmode none
attr title "packets received from lower layer, vector(packetBytes)"
vector 33 Scenario.host[1].wlan[0].mac.dcf packetReceivedFromPeer:vector(packetBytes) ETV
attr interpolationmode none
attr title "packets received, vector(packetBytes)"
vector 34 Scenario.host[1].wlan[0].mac.dcf packetReceivedFromPeerMulticast:vector(packetBytes) ETV
attr interpolationmode none
attr source ieee80211Multicast(packetReceivedFromPeer)
attr title "packets received: multicast, vector(packetBytes)"
vector 35 Scenario.host[1].wlan[0].mac.dcf packetReceivedFromPeerBroadcast:vector(packetBytes) ETV
attr interpolationmode none
attr source ieee80211Broadcast(packetReceivedFromPeer)
attr title "packets received: broadcast, vector(packetBytes)"
vector 36 Scenario.host[1].wlan[0].mac.dcf packetReceivedFromPeerWithoutRetry:vector(packetBytes) ETV
attr interpolationmode none
attr source ieee80211NotRetry(packetReceivedFromPeer)
attr title "packets received: without retry, vector(packetBytes)"
vector 37 Scenario.host[1].wlan[0].mac packetSentToUpper:vector(packetBytes) ETV
attr interpolationmode none
attr title "packets sent to upper layer, vector(packetBytes)"
vector 38 Scenario.host[2].ipv4.ip packetDropAddressResolutionFailed:vector(packetBytes) ETV
attr interpolationmode none
attr source packetDropReasonIsAddressResolutionFailed(packetDropped)
attr title "packet drop: address resolution failed, vector(packetBytes)"
vector 39 Scenario.host[1].app[0] packetSent:vector(packetBytes) ETV
attr interpolationmode none
attr source packetSent
attr title "packets sent, vector(packetBytes)"
vector 40 Scenario.host[1].udp packetSent:vector(packetBytes) ETV
attr interpolationmode none
attr source packetSent
attr title "packets sent, vector(packetBytes)"
vector 41 Scenario.host[1].ipv4.arp arpRequestSent:vector(packetBytes) ETV
attr source arpRequestSent
attr title "ARP request sent, vector(packetBytes)"
vector 42 Scenario.host[1].wlan[0].mac packetReceivedFromUpper:vector(packetBytes) ETV
attr interpolationmode none
attr title "packets received from upper layer, vector(packetBytes)"
vector 43 Scenario.host[1].wlan[0].mac.dcf.channelAccess.pendingQueue packetPushed:vector(packetBytes) ETV
attr interpolationmode none
attr title "packet pushed, vector(packetBytes)"
vector 44 Scenario.host[1].wlan[0].mac.dcf.channelAccess.pendingQueue queueLength:vector ETV
attr interpolationmode sample-hold
attr source "count(packetPushed) - count(packetPopped) - count(packetRemoved) - count(packetDropped)"
attr title "queue length, vector"
vector 45 Scenario.host[1].wlan[0].mac.dcf.channelAccess.contention backoffPeriodGenerated:vector ETV
attr interpolationmode none
attr title "backoff periods, vector"
vector 46 Scenario.host[1].wlan[0].mac.dcf.channelAccess.contention backoffActive:vector ETV
attr interpolationmode sample-hold
attr source count(backoffStarted)-count(backoffStopped)
attr title "backoff active, vector"
vector 47 Scenario.host[1].wlan[0].mac.dcf.channelAccess.pendingQueue packetPopped:vector(packetBytes) ETV
attr interpolationmode none
attr title "packet popped, vector(packetBytes)"
vector 48 Scenario.host[1].wlan[0].mac.dcf.channelAccess.pendingQueue queueingTime:vector ETV
attr interpolationmode none
attr source queueingTime(packetPopped)
attr title "queueing times, vector"
attr unit s
vector 49 Scenario.host[1].wlan[0].mac.dcf.channelAccess.inProgressFrames queueLength:vector ETV
attr interpolationmode sample-hold
attr source "count(packetEnqueued) - count(packetDequeued)"
attr title "queue length, vector"
vector 50 Scenario.host[1].wlan[0].mac.dcf datarateSelected:vector ETV
attr interpolationmode none
attr title "datarates selected, vector"
vector 51 Scenario.host[1].wlan[0].mac packetSentToLower:vector(packetBytes) ETV
attr interpolationmode none
attr title "packets sent to lower layer, vector(packetBytes)"
vector 52 Scenario.host[1].wlan[0].mac.dcf frameSequenceActive:vector ETV
attr interpolationmode sample-hold
attr source count(frameSequenceStarted)-count(frameSequenceFinished)
attr title "frame sequence active, vector"
vector 53 Scenario.host[1].wlan[0].radio transmissionState:vector ETV
attr interpolationmode sample-hold
attr source transmissionStateChanged
attr title "Radio transmission state, vector"
vector 54 Scenario.host[1].wlan[0].mac.dcf packetSentToPeer:vector(packetBytes) ETV
attr interpolationmode none
attr title "packets sent, vector(packetBytes)"
vector 55 Scenario.host[1].wlan[0].mac.dcf packetSentToPeerMulticast:vector(packetBytes) ETV
attr interpolationmode none
attr source ieee80211Multicast(packetSentToPeer)
attr title "packets sent: multicast, vector(packetBytes)"
vector 56 Scenario.host[1].wlan[0].mac.dcf packetSentToPeerBroadcast:vector(packetBytes) ETV
attr interpolationmode none
attr source ieee80211Broadcast(packetSentToPeer)
attr title "packets sent: broadcast , vector(packetBytes)"
vector 57 Scenario.host[1].wlan[0].mac.dcf packetSentToPeerWithoutRetry:vector(packetBytes) ETV
attr interpolationmode none
attr source ieee80211NotRetry(packetSentToPeer)
attr title "packets sent: without retry, vector(packetBytes)"
vector 58 Scenario.host[1].wlan[0].mac.dcf.channelAccess.inProgressFrames queueingTime:vector ETV
attr interpolationmode none
attr source queueingTime(packetDequeued)
attr title "queueing times, vector"
vector 59 Scenario.host[0].wlan[0].mac packetReceivedFromLower:vector(packetBytes) ETV
attr interpolationmode none
attr title "packets received from lower layer, vector(packetBytes)"
vector 60 Scenario.host[0].wlan[0].mac.dcf packetReceivedFromPeer:vector(packetBytes) ETV
attr interpolationmode none
attr title "packets received, vector(packetBytes)"
vector 61 Scenario.host[0].wlan[0].mac.dcf packetReceivedFromPeerMulticast:vector(packetBytes) ETV
attr interpolationmode none
attr source ieee80211Multicast(packetReceivedFromPeer)
attr title "packets received: multicast, vector(packetBytes)"
vector 62 Scenario.host[0].wlan[0].mac.dcf packetReceivedFromPeerBroadcast:vector(packetBytes) ETV
attr interpolationmode none
attr source ieee80211Broadcast(packetReceivedFromPeer)
attr title "packets received: broadcast, vector(packetBytes)"
vector 63 Scenario.host[0].wlan[0].mac.dcf packetReceivedFromPeerWithoutRetry:vector(packetBytes) ETV
attr interpolationmode none
attr source ieee80211NotRetry(packetReceivedFromPeer)
attr title "packets received: without retry, vector(packetBytes)"
vector 64 Scenario.host[0].wlan[0].mac packetSentToUpper:vector(packetBytes) ETV
attr interpolationmode none
attr title "packets sent to upper layer, vector(packetBytes)"
vector 65 Scenario.host[0].ipv4.arp arpReplySent:vector(packetBytes) ETV
attr source arpReplySent
attr title "ARP replies sent, vector(packetBytes)"
vector 66 Scenario.host[0].wlan[0].mac packetReceivedFromUpper:vector(packetBytes) ETV
attr interpolationmode none
attr title "packets received from upper layer, vector(packetBytes)"
vector 67 Scenario.host[0].wlan[0].mac.dcf.channelAccess.pendingQueue packetPushed:vector(packetBytes) ETV
attr interpolationmode none
attr title "packet pushed, vector(packetBytes)"
vector 68 Scenario.host[0].wlan[0].mac.dcf.channelAccess.pendingQueue queueLength:vector ETV
attr interpolationmode sample-hold
attr source "count(packetPushed) - count(packetPopped) - count(packetRemoved) - count(packetDropped)"
attr title "queue length, vector"
vector 69 Scenario.host[0].wlan[0].mac.dcf.channelAccess.contention backoffPeriodGenerated:vector ETV
attr interpolationmode none
attr title "backoff periods, vector"
vector 70 Scenario.host[0].wlan[0].mac.dcf.channelAccess.contention backoffActive:vector ETV
attr interpolationmode sample-hold
attr source count(backoffStarted)-count(backoffStopped)
attr title "backoff active, vector"
vector 71 Scenario.host[0].wlan[0].mac.dcf.channelAccess.pendingQueue packetPopped:vector(packetBytes) ETV
attr interpolationmode none
attr title "packet popped, vector(packetBytes)"
vector 72 Scenario.host[0].wlan[0].mac.dcf.channelAccess.pendingQueue queueingTime:vector ETV
attr interpolationmode none
attr source queueingTime(packetPopped)
attr title "queueing times, vector"
attr unit s
vector 73 Scenario.host[0].wlan[0].mac.dcf.channelAccess.inProgressFrames queueLength:vector ETV
attr interpolationmode sample-hold
attr source "count(packetEnqueued) - count(packetDequeued)"
attr title "queue length, vector"
vector 74 Scenario.host[0].wlan[0].mac.dcf datarateSelected:vector ETV
attr interpolationmode none
attr title "datarates selected, vector"
vector 75 Scenario.host[0].wlan[0].mac packetSentToLower:vector(packetBytes) ETV
attr interpolationmode none
attr title "packets sent to lower layer, vector(packetBytes)"
vector 76 Scenario.host[0].wlan[0].mac.dcf frameSequenceActive:vector ETV
attr interpolationmode sample-hold
attr source count(frameSequenceStarted)-count(frameSequenceFinished)
attr title "frame sequence active, vector"
vector 77 Scenario.host[0].wlan[0].radio transmissionState:vector ETV
attr interpolationmode sample-hold
attr source transmissionStateChanged
attr title "Radio transmission state, vector"
vector 78 Scenario.host[0].wlan[0].mac.dcf packetSentToPeer:vector(packetBytes) ETV
attr interpolationmode none
attr title "packets sent, vector(packetBytes)"
vector 79 Scenario.host[0].wlan[0].mac.dcf packetSentToPeerUnicast:vector(packetBytes) ETV
attr interpolationmode none
attr source ieee80211Unicast(packetSentToPeer)
attr title "packets sent: unicast, vector(packetBytes)"
vector 80 Scenario.host[0].wlan[0].mac.dcf packetSentToPeerWithoutRetry:vector(packetBytes) ETV
attr interpolationmode none
attr source ieee80211NotRetry(packetSentToPeer)
attr title "packets sent: without retry, vector(packetBytes)"
vector 81 Scenario.host[0].wlan[0].mac.rx nav:vector ETV
attr interpolationmode linear
attr source navChanged
attr title "network allocation vector, vector"
vector 82 Scenario.host[2].wlan[0].mac packetReceivedFromLower:vector(packetBytes) ETV
attr interpolationmode none
attr title "packets received from lower layer, vector(packetBytes)"
vector 83 Scenario.host[2].wlan[0].mac.rx nav:vector ETV
attr interpolationmode linear
attr source navChanged
attr title "network allocation vector, vector"
vector 84 Scenario.host[2].wlan[0].mac.dcf packetDrop:vector(packetBytes) ETV
attr interpolationmode none
attr source packetDropped
attr title "packet drops, vector(packetBytes)"
vector 85 Scenario.host[2].wlan[0].mac.dcf packetDropNotAddressedToUs:vector(packetBytes) ETV
attr interpolationmode none
attr source packetDropReasonIsNotAddressedToUs(packetDropped)
attr title "packet drops: not addressed to us, vector(packetBytes)"
vector 86 Scenario.host[2].wlan[0].mac packetDrop:vector(packetBytes) ETV
attr interpolationmode none
attr source packetDropped
attr title "packet drops, vector(packetBytes)"
vector 87 Scenario.host[2].wlan[0].mac packetDropNotAddressedToUs:vector(packetBytes) ETV
attr interpolationmode none
attr source packetDropReasonIsNotAddressedToUs(packetDropped)
attr title "packet drops: not addressed to us, vector(packetBytes)"
vector 88 Scenario.host[1].wlan[0].mac.dcf packetReceivedFromPeerUnicast:vector(packetBytes) ETV
attr interpolationmode none
attr source ieee80211Unicast(packetReceivedFromPeer)
attr title "packets received: unicast, vector(packetBytes)"
vector 89 Scenario.host[1].wlan[0].mac.dcf packetSentToPeerUnicast:vector(packetBytes) ETV
attr interpolationmode none
attr source ieee80211Unicast(packetSentToPeer)
attr title "packets sent: unicast, vector(packetBytes)"
vector 90 Scenario.host[0].wlan[0].mac.dcf packetReceivedFromPeerUnicast:vector(packetBytes) ETV
attr interpolationmode none
attr source ieee80211Unicast(packetReceivedFromPeer)
attr title "packets received: unicast, vector(packetBytes)"
vector 91 Scenario.host[0].wlan[0].mac.dcf.channelAccess.inProgressFrames queueingTime:vector ETV
attr interpolationmode none
attr source queueingTime(packetDequeued)
attr title "queueing times, vector"
vector 92 Scenario.host[1].wlan[0].mac.rx nav:vector ETV
attr interpolationmode linear
attr source navChanged
attr title "network allocation vector, vector"
vector 93 Scenario.host[0].udp packetReceived:vector(packetBytes) ETV
attr interpolationmode none
attr source packetReceived
attr title "packets received, vector(packetBytes)"
vector 94 Scenario.host[0].udp droppedPkWrongPort:vector(count) ETV
attr interpolationmode none
attr source packetDropReasonIsNoPortFound(packetDropped)
attr title "packets dropped (wrong port), vector(count)"
vector 95 Scenario.host[0].app[0] packetSent:vector(packetBytes) ETV
attr interpolationmode none
attr source packetSent
attr title "packets sent, vector(packetBytes)"
vector 96 Scenario.host[0].udp packetSent:vector(packetBytes) ETV
attr interpolationmode none
attr source packetSent
attr title "packets sent, vector(packetBytes)"
vector 97 Scenario.host[0].lo[0].lo rcvdPkFromHl:vector(packetBytes) ETV
attr interpolationmode none
attr source packetReceivedFromUpper
attr title "packets received from higher layer, vector(packetBytes)"
vector 98 Scenario.host[0].lo[0].lo passedUpPk:vector(packetBytes) ETV
attr interpolationmode none
attr source packetSentToUpper
attr title "packets passed to higher layer, vector(packetBytes)"
vector 99 Scenario.host[0].udp passedUpPk:vector(count) ETV
attr interpolationmode none
attr source packetSentToUpper
attr title "packets passed up, vector(count)"
vector 100 Scenario.host[0].app[0] packetReceived:vector(packetBytes) ETV
attr interpolationmode none
attr source packetReceived
attr title "packets received, vector(packetBytes)"
vector 101 Scenario.host[0].app[0] throughput:vector ETV
attr source throughput(packetReceived)
attr title "throughput, vector"
attr unit bps
vector 102 Scenario.host[0].app[0] rcvdPkLifetime:vector ETV
attr interpolationmode none
attr source dataAge(packetReceived)
attr title "received packet lifetime, vector"
attr unit s
vector 103 Scenario.host[0].app[0] rcvdPkSeqNo:vector ETV
attr interpolationmode none
attr source appPkSeqNo(packetReceived)
attr title "received packet sequence number, vector"
vector 104 Scenario.host[1].wlan[0].mac.dcf packetDrop:vector(packetBytes) ETV
attr interpolationmode none
attr source packetDropped
attr title "packet drops, vector(packetBytes)"
vector 105 Scenario.host[1].wlan[0].mac.dcf packetDropNotAddressedToUs:vector(packetBytes) ETV
attr interpolationmode none
attr source packetDropReasonIsNotAddressedToUs(packetDropped)
attr title "packet drops: not addressed to us, vector(packetBytes)"
vector 106 Scenario.host[1].wlan[0].mac packetDrop:vector(packetBytes) ETV
attr interpolationmode none
attr source packetDropped
attr title "packet drops, vector(packetBytes)"
vector 107 Scenario.host[1].wlan[0].mac packetDropNotAddressedToUs:vector(packetBytes) ETV
attr interpolationmode none
attr source packetDropReasonIsNotAddressedToUs(packetDropped)
attr title "packet drops: not addressed to us, vector(packetBytes)"
vector 108 Scenario.host[2].wlan[0].mac.dcf packetReceivedFromPeer:vector(packetBytes) ETV
attr interpolationmode none
attr title "packets received, vector(packetBytes)"
vector 109 Scenario.host[2].wlan[0].mac.dcf packetReceivedFromPeerUnicast:vector(packetBytes) ETV
attr interpolationmode none
attr source ieee80211Unicast(packetReceivedFromPeer)
attr title "packets received: unicast, vector(packetBytes)"
vector 110 Scenario.host[2].wlan[0].mac.dcf packetReceivedFromPeerWithoutRetry:vector(packetBytes) ETV
attr interpolationmode none
attr source ieee80211NotRetry(packetReceivedFromPeer)
attr title "packets received: without retry, vector(packetBytes)"
vector 111 Scenario.host[2].wlan[0].mac packetSentToUpper:vector(packetBytes) ETV
attr interpolationmode none
attr title "packets sent to upper layer, vector(packetBytes)"
vector 112 Scenario.host[2].wlan[0].mac.dcf packetSentToPeerUnicast:vector(packetBytes) ETV
attr interpolationmode none
attr source ieee80211Unicast(packetSentToPeer)
attr title "packets sent: unicast, vector(packetBytes)"
vector 113 Scenario.host[1].wlan[0].mac.dcf packetSentToPeerWithRetry:vector(packetBytes) ETV
attr interpolationmode none
attr source ieee80211Retry(packetSentToPeer)
attr title "packets sent: with retry, vector(packetBytes)"
vector 114 Scenario.host[1].wlan[0].mac.dcf packetDropRetryLimitReached:vector(packetBytes) ETV
attr interpolationmode none
attr source packetDropReasonIsRetryLimitReached(packetDropped)
attr title "packet drops: retry limit reached, vector(packetBytes)"
vector 115 Scenario.host[1].wlan[0].mac packetDropRetryLimitReached:vector(packetBytes) ETV
attr interpolationmode none
attr source packetDropReasonIsRetryLimitReached(packetDropped)
attr title "packet drops: retry limit reached, vector(packetBytes)"
vector 116 Scenario.host[2].wlan[0].mac.dcf packetSentToPeerWithRetry:vector(packetBytes) ETV
attr interpolationmode none
attr source ieee80211Retry(packetSentToPeer)
attr title "packets sent: with retry, vector(packetBytes)"
vector 117 Scenario.host[2].wlan[0].mac.dcf packetDropRetryLimitReached:vector(packetBytes) ETV
attr interpolationmode none
attr source packetDropReasonIsRetryLimitReached(packetDropped)
attr title "packet drops: retry limit reached, vector(packetBytes)"
vector 118 Scenario.host[2].wlan[0].mac packetDropRetryLimitReached:vector(packetBytes) ETV
attr interpolationmode none
attr source packetDropReasonIsRetryLimitReached(packetDropped)
attr title "packet drops: retry limit reached, vector(packetBytes)"
vector 119 Scenario.host[2].wlan[0].mac.dcf packetReceivedFromPeerMulticast:vector(packetBytes) ETV
attr interpolationmode none
attr source ieee80211Multicast(packetReceivedFromPeer)
attr title "packets received: multicast, vector(packetBytes)"
vector 120 Scenario.host[2].wlan[0].mac.dcf packetReceivedFromPeerBroadcast:vector(packetBytes) ETV
attr interpolationmode none
attr source ieee80211Broadcast(packetReceivedFromPeer)
attr title "packets received: broadcast, vector(packetBytes)"
vector 121 Scenario.host[1].ipv4.ip packetDropAddressResolutionFailed:vector(packetBytes) ETV
attr interpolationmode none
attr source packetDropReasonIsAddressResolutionFailed(packetDropped)
attr title "packet drop: address resolution failed, vector(packetBytes)"
101	1078	0.1	0
101	1078	0.2	0
101	1078	0.3	0
101	1078	0.4	0
101	1078	0.5	0
101	1078	0.6	0
101	1078	0.7	0
101	1078	0.8	0
101	1078	0.9	0
101	1078	1	0
101	1078	1.1	0
101	1078	1.2	0
101	1078	1.3	0
101	1078	1.4	0
101	1078	1.5	0
101	1078	1.6	0
101	1078	1.7	0
101	1078	1.8	0
101	1078	1.9	0
101	1078	2	0
101	1078	2.1	0
101	1078	2.2	0
101	1078	2.3	0
101	1078	2.4	0
101	1078	2.5	0
101	1078	2.6	0
101	1078	2.7	0
101	1078	2.8	0
101	1078	2.9	0
101	1078	3	0
101	1078	3.1	0
101	1078	3.2	0
101	1078	3.3	0
101	1078	3.4	0
101	1078	3.5	0
101	1078	3.6	0
101	1078	3.7	0
101	1078	3.8	0
101	1078	3.9	0
101	1078	4	0
101	1078	4.1	0
101	1078	4.2	0
101	1078	4.3	0
101	1078	4.4	0
101	1078	4.5	0
101	1078	4.6	0
101	1078	4.7	0
101	1078	4.8	0
101	1078	4.9	0
101	1078	5	0
101	1078	5.1	0
101	1078	5.2	0
101	1078	5.3	0
101	1078	5.4	0
101	1078	5.5	0
101	1078	5.6	0
101	1078	5.7	0
101	1078	5.8	0
101	1078	5.9	0
101	1078	6	0
101	1078	6.1	0
101	1078	6.2	0
101	1078	6.3	0
101	1078	6.4	0
101	1078	6.5	0
101	1078	6.6	0
101	1078	6.7	0
101	1078	6.8	0
101	1078	6.9	0
101	1078	7	0
101	1078	7.1	0
101	1078	7.2	0
101	1078	7.3	0
101	1078	7.4	0
101	1078	7.5	0
101	1078	7.6	0
101	1078	7.7	0
101	1078	7.8	0
101	1078	7.9	0
101	1078	8	0
101	1078	8.1	0
101	1078	8.2	0
101	1078	8.3	0
101	1078	8.4	0
101	1078	8.5	0
101	1078	8.6	0
101	1078	8.7	0
101	1078	8.8	0
101	1078	8.9	0
101	1078	9	0
101	1078	9.1	0
101	1078	9.2	0
101	1078	9.3	0
101	1078	9.4	0
101	1078	9.5	0
101	1078	9.6	0
101	1078	9.7	0
101	1078	9.8	0
101	1078	9.9	0
101	1078	10	0
101	1078	10.1	0
101	1078	10.2	0
101	1078	10.3	0
101	1078	10.4	0
101	1078	10.5	0
101	1078	10.6	0
101	1078	10.7	0
101	1078	10.8	0
101	1078	10.9	0
101	1078	11	0
101	1078	11.1	0
101	1078	11.2	0
101	1078	11.3	0
101	1078	11.4	0
101	1078	11.5	0
101	1078	11.6	0
101	1078	11.7	0
101	1078	11.8	0
101	1078	11.9	0
101	1078	12	0
101	1078	12.1	0
101	1078	12.2	0
101	1078	12.3	0
101	1078	12.4	0
101	1078	12.5	0
101	1078	12.6	0
101	1078	12.7	0
101	1078	12.8	0
101	1078	12.9	0
101	1078	13	0
101	1078	13.1	0
101	1078	13.2	0
101	1078	13.3	0
101	1078	13.4	0
101	1078	13.5	0
101	1078	13.6	0
101	1078	13.7	0
101	1078	13.8	0
101	1078	13.9	0
101	1078	14	0
101	1078	14.1	0
101	1078	14.2	0
101	1078	14.3	0
101	1078	14.4	0
101	1078	14.5	0
101	1078	14.6	0
101	1078	14.7	0
101	1078	14.8	0
101	1078	14.9	0
101	1078	15	0
101	1078	15.1	0
101	1078	15.2	0
101	1078	15.3	0
101	1078	15.4	0
101	1078	15.5	0
101	1078	15.6	0
101	1078	15.7	0
101	1078	15.8	0
101	1078	15.9	0
101	1078	16	0
101	1078	16.1	0
101	1078	16.2	0
101	1078	16.3	0
101	1078	16.4	0
101	1078	16.5	0
101	1078	16.6	0
101	1078	16.7	0
101	1078	16.8	0
101	1078	16.9	0
101	1078	17	0
101	1078	17.1	0
101	1078	17.2	0
101	1078	17.3	0
101	1078	17.4	0
101	1078	17.5	0
101	1078	17.6	0
101	1078	17.7	0
101	1078	17.8	0
101	1078	17.9	0
101	1078	18	0
101	1078	18.1	0
101	1078	18.2	0
101	1078	18.3	0
101	1078	18.4	0
101	1078	18.5	0
101	1078	18.6	0
101	1078	18.7	0
101	1078	18.8	0
101	1078	18.9	0
101	1078	19	0
101	1078	19.1	0
101	1078	19.2	0
101	1078	19.3	0
101	1078	19.4	0
101	1078	19.5	0
101	1078	19.6	0
101	1078	19.7	0
101	1078	19.8	0
101	1078	19.9	0
101	1078	20	0
101	1078	20.1	0
101	1078	20.2	0
101	1078	20.3	0
101	1078	20.4	0
101	1078	20.5	0
101	1078	20.6	0
101	1078	20.7	0
101	1078	20.8	0
101	1078	20.9	0
101	1078	21	0
101	1078	21.1	0
101	1078	21.2	0
101	1078	21.3	0
101	1078	21.4	0
101	1078	21.5	0
101	1078	21.6	0
101	1078	21.7	0
101	1078	21.8	0
101	1078	21.9	0
101	1078	22	0
101	1078	22.1	0
101	1078	22.2	0
101	1078	22.3	0
101	1078	22.4	0
101	1078	22.5	0
101	1078	22.6	0
101	1078	22.7	0
101	1078	22.8	0
101	1078	22.9	0
101	1078	23	0
101	1078	23.1	0
101	1078	23.2	0
101	1078	23.3	0
101	1078	23.4	0
101	1078	23.5	0
101	1078	23.6	0
101	1078	23.7	0
101	1078	23.8	0
101	1078	23.9	0
101	1078	24	0
101	1078	24.1	0
101	1078	24.2	0
101	1078	24.3	0
101	1078	24.4	0
101	1078	24.5	0
101	1078	24.6	0
101	1078	24.7	0
101	1078	24.8	0
101	1078	24.9	0
101	1078	25	0
101	1078	25.1	0
101	1078	25.2	0
101	1078	25.3	0
101	1078	25.4	0
101	1078	25.5	0
101	1078	25.6	0
101	1078	25.7	0
101	1078	25.8	0
101	1078	25.9	0
101	1078	26	0
101	1078	26.1	0
101	1078	26.2	0
101	1078	26.3	0
101	1078	26.4	0
101	1078	26.5	0
101	1078	26.6	0
101	1078	26.7	0
101	1078	26.8	0
101	1078	26.9	0
101	1078	27	0
101	1078	27.1	0
101	1078	27.2	0
101	1078	27.3	0
101	1078	27.4	0
101	1078	27.5	0
101	1078	27.6	0
101	1078	27.7	0
101	1078	27.8	0
101	1078	27.9	0
101	1078	28	0
101	1078	28.1	0
101	1078	28.2	0
101	1078	28.3	0
101	1078	28.4	0
101	1078	28.5	0
101	1078	28.6	0
101	1078	28.7	0
101	1078	28.8	0
101	1078	28.9	0
101	1078	29	0
101	1078	29.1	0
101	1078	29.2	0
101	1078	29.3	0
101	1078	29.4	0
101	1390	29.5	8000
101	1390	29.6	0
101	1390	29.7	0
101	1390	29.8	0
101	1390	29.9	0
101	1390	30	0
101	1390	30.1	0
101	1390	30.2	0
101	1390	30.3	0
101	1390	30.4	0
101	1390	30.5	0
101	1390	30.6	0
101	1390	30.7	0
101	1390	30.8	0
101	1390	30.9	0
101	1390	31	0
101	1390	31.1	0
101	1390	31.2	0
101	1390	31.3	0
101	1390	31.4	0
101	1390	31.5	0
101	1390	31.6	0
101	1390	31.7	0
101	1390	31.8	0
101	1390	31.9	0
101	1390	32	0
101	1390	32.1	0
101	1390	32.2	0
101	1390	32.3	0
101	1390	32.4	0
101	1390	32.5	0
101	1390	32.6	0
101	1390	32.7	0
101	1390	32.8	0
101	1390	32.9	0
101	1390	33	0
101	1390	33.1	0
101	1390	33.2	0
101	1390	33.3	0
101	1390	33.4	0
101	1390	33.5	0
101	1390	33.6	0
101	1390	33.7	0
101	1390	33.8	0
101	1390	33.9	0
101	1390	34	0
101	1390	34.1	0
101	1390	34.2	0
101	1390	34.3	0
101	1390	34.4	0
101	1390	34.5	0
101	1390	34.6	0
101	1390	34.7	0
101	1390	34.8	0
101	1390	34.9	0
101	1390	35	0
101	1390	35.1	0
101	1390	35.2	0
101	1390	35.3	0
101	1390	35.4	0
101	1390	35.5	0
101	1390	35.6	0
101	1390	35.7	0
101	1390	35.8	0
101	1390	35.9	0
101	1390	36	0
101	1390	36.1	0
101	1390	36.2	0
101	1390	36.3	0
101	1390	36.4	0
101	1390	36.5	0
101	1390	36.6	0
101	1390	36.7	0
101	1390	36.8	0
101	1390	36.9	0
101	1390	37	0
101	1390	37.1	0
101	1390	37.2	0
101	1390	37.3	0
101	1621	37.4	8000
101	1621	37.5	0
101	1621	37.6	0
101	1621	37.7	0
101	1621	37.8	0
101	1621	37.9	0
101	1621	38	0
101	1621	38.1	0
101	1621	38.2	0
101	1621	38.3	0
101	1621	38.4	0
101	1621	38.5	0
101	1621	38.6	0
101	1621	38.7	0
101	1621	38.8	0
101	1621	38.9	0
101	1621	39	0
101	1621	39.1	0
101	1621	39.2	0
101	1621	39.3	0
101	1621	39.4	0
101	1621	39.5	0
101	1621	39.6	0
101	1621	39.7	0
101	1621	39.8	0
101	1621	39.9	0
101	1621	40	0
101	1621	40.1	0
101	1621	40.2	0
101	1621	40.3	0
101	1621	40.4	0
101	1621	40.5	0
101	1621	40.6	0
101	1621	40.7	0
101	1621	40.8	0
101	1621	40.9	0
101	1621	41	0
101	1621	41.1	0
101	1621	41.2	0
101	1621	41.3	0
101	1621	41.4	0
101	1621	41.5	0
101	1621	41.6	0
101	1621	41.7	0
101	1621	41.8	0
101	1621	41.9	0
101	1621	42	0
101	1621	42.1	0
101	1621	42.2	0
101	1621	42.3	0
101	1621	42.4	0
101	1621	42.5	0
101	1621	42.6	0
101	1621	42.7	0
101	1621	42.8	0
101	1621	42.9	0
101	1621	43	0
101	1621	43.1	0
101	1621	43.2	0
101	1621	43.3	0
101	1621	43.4	0
101	1621	43.5	0
101	1621	43.6	0
101	1621	43.7	0
101	1621	43.8	0
101	1621	43.9	0
101	2038	44	8000
101	2038	44.1	0
101	2038	44.2	0
101	2038	44.3	0
101	2038	44.4	0
101	2038	44.5	0
101	2038	44.6	0
101	2038	44.7	0
101	2038	44.8	0
101	2038	44.9	0
101	2038	45	0
101	2038	45.1	0
101	2038	45.2	0
101	2038	45.3	0
101	2038	45.4	0
101	2038	45.5	0
101	2038	45.6	0
101	2038	45.7	0
101	2038	45.8	0
101	2038	45.9	0
101	2038	46	0
101	2038	46.1	0
101	2038	46.2	0
101	2038	46.3	0
101	2038	46.4	0
101	2038	46.5	0
101	2038	46.6	0
101	2038	46.7	0
101	2038	46.8	0
101	2038	46.9	0
101	2038	47	0
101	2038	47.1	0
101	2038	47.2	0
101	2038	47.3	0
101	2038	47.4	0
101	2038	47.5	0
101	2038	47.6	0
101	2038	47.7	0
101	2038	47.8	0
101	2038	47.9	0
101	2038	48	0
101	2038	48.1	0
101	2038	48.2	0
101	2038	48.3	0
101	2038	48.4	0
101	2038	48.5	0
101	2038	48.6	0
101	2038	48.7	0
101	2038	48.8	0
101	2038	48.9	0
101	2038	49	0
101	2038	49.1	0
101	2038	49.2	0
101	2038	49.3	0
101	2038	49.4	0
101	2038	49.5	0
101	2038	49.6	0
101	2038	49.7	0
101	2038	49.8	0
101	2038	49.9	0
101	2038	50	0
101	2038	50.1	0
101	2038	50.2	0
101	2038	50.3	0
101	2038	50.4	0
101	2038	50.5	0
101	2038	50.6	0
101	2038	50.7	0
101	2038	50.8	0
101	2038	50.9	0
101	2038	51	0
101	2038	51.1	0
101	2038	51.2	0
101	2038	51.3	0
101	2038	51.4	0
101	2038	51.5	0
101	2038	51.6	0
101	2038	51.7	0
101	2038	51.8	0
101	2038	51.9	0
101	2038	52	0
101	2038	52.1	0
101	2038	52.2	0
101	2038	52.3	0
101	2038	52.4	0
101	2038	52.5	0
101	2038	52.6	0
101	2038	52.7	0
101	2038	52.8	0
101	2038	52.9	0
101	2038	53	0
101	2038	53.1	0
101	2038	53.2	0
101	2038	53.3	0
101	2379	53.4	8000
101	2379	53.5	0
101	2379	53.6	0
101	2379	53.7	0
101	2379	53.8	0
101	2379	53.9	0
101	2379	54	0
101	2379	54.1	0
101	2379	54.2	0
101	2379	54.3	0
101	2379	54.4	0
101	2379	54.5	0
101	2379	54.6	0
101	2379	54.7	0
101	2379	54.8	0
101	2379	54.9	0
101	2379	55	0
101	2379	55.1	0
101	2379	55.2	0
101	2379	55.3	0
101	2379	55.4	0
101	2379	55.5	0
101	2379	55.6	0
101	2379	55.7	0
101	2379	55.8	0
101	2379	55.9	0
101	2379	56	0
101	2379	56.1	0
101	2379	56.2	0
101	2379	56.3	0
101	2379	56.4	0
101	2379	56.5	0
101	2379	56.6	0
101	2379	56.7	0
101	2379	56.8	0
101	2379	56.9	0
101	2379	57	0
101	2379	57.1	0
101	2379	57.2	0
101	2379	57.3	0
101	2379	57.4	0
101	2379	57.5	0
101	2379	57.6	0
101	2379	57.7	0
101	2379	57.8	0
101	2379	57.9	0
101	2379	58	0
101	2379	58.1	0
101	2379	58.2	0
101	2379	58.3	0
101	2379	58.4	0
101	2379	58.5	0
101	2379	58.6	0
101	2379	58.7	0
101	2379	58.8	0
101	2379	58.9	0
101	2379	59	0
101	2379	59.1	0
101	2379	59.2	0
101	2379	59.3	0
101	2379	59.4	0
101	2379	59.5	0
101	2379	59.6	0
101	2379	59.7	0
101	2379	59.8	0
101	2379	59.9	0
101	2379	60	0
101	2379	60.1	0
101	2379	60.2	0
101	2379	60.3	0
101	2379	60.4	0
101	2379	60.5	0
101	2379	60.6	0
101	2379	60.7	0
101	2379	60.8	0
101	2379	60.9	0
101	2379	61	0
101	2379	61.1	0
101	2379	61.2	0
101	2379	61.3	0
101	2379	61.4	0
101	2379	61.5	0
101	2379	61.6	0
101	2379	61.7	0
101	2379	61.8	0
101	2379	61.9	0
101	2379	62	0
101	2379	62.1	0
101	2379	62.2	0
101	2379	62.3	0
101	2379	62.4	0
101	2379	62.5	0
101	2379	62.6	0
101	2379	62.7	0
101	2379	62.8	0
101	2379	62.9	0
101	2379	63	0
101	2379	63.1	0
101	2379	63.2	0
101	2379	63.3	0
101	2379	63.4	0
101	2673	63.5	8000
101	2673	63.6	0
101	2673	63.7	0
101	2673	63.8	0
101	2673	63.9	0
101	2673	64	0
101	2673	64.1	0
101	2673	64.2	0
101	2673	64.3	0
101	2673	64.4	0
101	2673	64.5	0
101	2673	64.6	0
101	2673	64.7	0
101	2673	64.8	0
101	2673	64.9	0
101	2673	65	0
101	2673	65.1	0
101	2673	65.2	0
101	2673	65.3	0
101	2673	65.4	0
101	2673	65.5	0
101	2673	65.6	0
101	2673	65.7	0
101	2673	65.8	0
101	2673	65.9	0
101	2673	66	0
101	2673	66.1	0
101	2673	66.2	0
101	2673	66.3	0
101	2673	66.4	0
101	2673	66.5	0
101	2673	66.6	0
101	2673	66.7	0
101	2673	66.8	0
101	2673	66.9	0
101	2673	67	0
101	2673	67.1	0
101	2673	67.2	0
101	2673	67.3	0
101	2673	67.4	0
101	2673	67.5	0
101	2673	67.6	0
101	2673	67.7	0
101	2673	67.8	0
101	2673	67.9	0
101	2673	68	0
101	2673	68.1	0
101	2673	68.2	0
101	2673	68.3	0
101	2673	68.4	0
101	2673	68.5	0
101	2673	68.6	0
101	2673	68.7	0
101	2673	68.8	0
101	2673	68.9	0
101	2673	69	0
101	2673	69.1	0
101	3022	69.2	8000
101	3022	69.3	0
101	3022	69.4	0
101	3022	69.5	0
101	3022	69.6	0
101	3022	69.7	0
101	3022	69.8	0
101	3022	69.9	0
101	3022	70	0
101	3022	70.1	0
101	3022	70.2	0
101	3022	70.3	0
101	3022	70.4	0
101	3022	70.5	0
101	3022	70.6	0
101	3022	70.7	0
101	3022	70.8	0
101	3022	70.9	0
101	3022	71	0
101	3022	71.1	0
101	3022	71.2	0
101	3022	71.3	0
101	3022	71.4	0
101	3022	71.5	0
101	3022	71.6	0
101	3022	71.7	0
101	3022	71.8	0
101	3022	71.9	0
101	3022	72	0
101	3022	72.1	0
101	3022	72.2	0
101	3022	72.3	0
101	3022	72.4	0
101	3022	72.5	0
101	3022	72.6	0
101	3022	72.7	0
101	3022	72.8	0
101	3022	72.9	0
101	3022	73	0
101	3022	73.1	0
101	3022	73.2	0
101	3022	73.3	0
101	3022	73.4	0
101	3022	73.5	0
101	3022	73.6	0
101	3022	73.7	0
101	3022	73.8	0
101	3022	73.9	0
101	3022	74	0
101	3022	74.1	0
101	3022	74.2	0
101	3022	74.3	0
101	3022	74.4	0
101	3022	74.5	0
101	3022	74.6	0
101	3022	74.7	0
101	3022	74.8	0
101	3022	74.9	0
101	3022	75	0
101	3022	75.1	0
101	3022	75.2	0
101	3022	75.3	0
101	3022	75.4	0
101	3022	75.5	0
101	3022	75.6	0
101	3022	75.7	0
101	3022	75.8	0
101	3022	75.9	0
101	3022	76	0
101	3022	76.1	0
101	3022	76.2	0
101	3022	76.3	0
101	3022	76.4	0
101	3022	76.5	0
101	3022	76.6	0
101	3022	76.7	0
101	3022	76.8	0
101	3022	76.9	0
101	3022	77	0
101	3022	77.1	0
101	3022	77.2	0
101	3022	77.3	0
101	3022	77.4	0
101	3022	77.5	0
101	3022	77.6	0
101	3022	77.7	0
101	3022	77.8	0
101	3022	77.9	0
101	3022	78	0
101	3022	78.1	0
101	3022	78.2	0
101	3022	78.3	0
101	3022	78.4	0
101	3022	78.5	0
101	3022	78.6	0
101	3022	78.7	0
101	3022	78.8	0
101	3022	78.9	0
101	3022	79	0
101	3022	79.1	0
101	3022	79.2	0
101	3022	79.3	0
101	3022	79.4	0
101	3022	79.5	0
101	3022	79.6	0
101	3022	79.7	0
101	3022	79.8	0
101	3022	79.9	0
101	3022	80	0
101	3022	80.1	0
101	3022	80.2	0
101	3022	80.3	0
101	3022	80.4	0
101	3177	80.5	8000
101	3177	80.6	0
101	3177	80.7	0
101	3177	80.8	0
101	3177	80.9	0
101	3177	81	0
101	3177	81.1	0
101	3177	81.2	0
101	3177	81.3	0
101	3177	81.4	0
101	3177	81.5	0
101	3177	81.6	0
101	3177	81.7	0
101	3177	81.8	0
101	3177	81.9	0
101	3177	82	0
101	3177	82.1	0
101	3177	82.2	0
101	3177	82.3	0
101	3177	82.4	0
101	3177	82.5	0
101	3177	82.6	0
101	3177	82.7	0
101	3177	82.8	0
101	3177	82.9	0
101	3177	83	0
101	3177	83.1	0
101	3177	83.2	0
101	3177	83.3	0
101	3177	83.4	0
101	3177	83.5	0
101	3177	83.6	0
101	3177	83.7	0
101	3177	83.8	0
101	3177	83.9	0
101	3177	84	0
101	3177	84.1	0
101	3177	84.2	0
101	3177	84.3	0
101	3177	84.4	0
101	3177	84.5	0
101	3177	84.6	0
101	3177	84.7	0
101	3309	84.8	8000
101	3309	84.9	0
101	3309	85	0
101	3309	85.1	0
101	3309	85.2	0
101	3309	85.3	0
101	3309	85.4	0
101	3309	85.5	0
101	3309	85.6	0
101	3309	85.7	0
101	3309	85.8	0
101	3309	85.9	0
101	3309	86	0
101	3309	86.1	0
101	3309	86.2	0
101	3309	86.3	0
101	3309	86.4	0
101	3309	86.5	0
101	3309	86.6	0
101	3309	86.7	0
101	3309	86.8	0
101	3309	86.9	0
101	3309	87	0
101	3309	87.1	0
101	3309	87.2	0
101	3309	87.3	0
101	3309	87.4	0
101	3309	87.5	0
101	3309	87.6	0
101	3309	87.7	0
101	3309	87.8	0
101	3416	87.9	8000
101	3416	88	0
101	3416	88.1	0
101	3416	88.2	0
101	3416	88.3	0
101	3416	88.4	0
101	3416	88.5	0
101	3416	88.6	0
101	3416	88.7	0
101	3416	88.8	0
101	3416	88.9	0
101	3416	89	0
101	3416	89.1	0
101	3416	89.2	0
101	3416	89.3	0
101	3416	89.4	0
101	3416	89.5	0
101	3416	89.6	0
101	3416	89.7	0
101	3416	89.8	0
101	3416	89.9	0
101	3416	90	0
101	3416	90.1	0
101	3416	90.2	0
101	3416	90.3	0
101	3416	90.4	0
101	3416	90.5	0
101	3416	90.6	0
101	4307	90.7	8000
101	4307	90.8	0
101	4307	90.9	0
101	4307	91	0
101	4307	91.1	0
101	4307	91.2	0
101	4307	91.3	0
101	4307	91.4	0
101	4307	91.5	0
101	4307	91.6	0
101	4307	91.7	0
101	4307	91.8	0
101	4307	91.9	0
101	4307	92	0
101	4307	92.1	0
101	4307	92.2	0
101	4307	92.3	0
101	4307	92.4	0
101	4307	92.5	0
101	4307	92.6	0
101	4307	92.7	0
101	4307	92.8	0
101	4307	92.9	0
101	4307	93	0
101	4307	93.1	0
101	4307	93.2	0
101	4307	93.3	0
101	4307	93.4	0
101	4307	93.5	0
101	4307	93.6	0
101	4307	93.7	0
101	4307	93.8	0
101	4307	93.9	0
101	4307	94	0
101	4307	94.1	0
101	4307	94.2	0
101	4307	94.3	0
101	4307	94.4	0
101	4307	94.5	0
101	4307	94.6	0
101	4307	94.7	0
101	4307	94.8	0
101	4307	94.9	0
101	4307	95	0
101	4307	95.1	0
101	4307	95.2	0
101	4307	95.3	0
101	4307	95.4	0
101	4307	95.5	0
101	4307	95.6	0
101	4307	95.7	0
101	4307	95.8	0
101	4307	95.9	0
101	4307	96	0
101	4307	96.1	0
101	4307	96.2	0
101	4307	96.3	0
101	4307	96.4	0
101	4307	96.5	0
101	4307	96.6	0
101	4307	96.7	0
101	4307	96.8	0
101	4307	96.9	0
101	4307	97	0
101	4307	97.1	0
101	4307	97.2	0
101	4307	97.3	0
101	4307	97.4	0
101	4307	97.5	0
101	4307	97.6	0
101	4307	97.7	0
101	4307	97.8	0
101	4307	97.9	0
101	4307	98	0
101	4307	98.1	0
101	4307	98.2	0
101	4307	98.3	0
101	4307	98.4	0
101	4307	98.5	0
101	4307	98.6	0
101	4307	98.7	0
101	4307	98.8	0
101	4307	98.9	0
101	4307	99	0
101	4307	99.1	0
101	4307	99.2	0
101	4307	99.3	0
101	4307	99.4	0
101	4307	99.5	0
101	4307	99.6	0
101	4307	99.7	0
101	4307	99.8	0
101	4307	99.9	0
101	4307	100	0
101	4307	100.1	0
101	4307	100.2	0
101	4307	100.3	0
101	4307	100.4	0
101	4307	100.5	0
101	4307	100.6	0
101	4307	100.7	0
101	4307	100.8	0
101	4307	100.9	0
101	4307	101	0
101	4307	101.1	0
101	4307	101.2	0
101	4307	101.3	0
101	4307	101.4	0
101	4307	101.5	0
101	4307	101.6	0
101	4307	101.7	0
101	4307	101.8	0
101	4307	101.9	0
101	4307	102	0
101	4307	102.1	0
101	4307	102.2	0
101	4307	102.3	0
101	4307	102.4	0
101	4307	102.5	0
101	4307	102.6	0
101	4307	102.7	0
101	4307	102.8	0
101	4307	102.9	0
101	4307	103	0
101	4307	103.1	0
101	4307	103.2	0
101	4307	103.3	0
101	4307	103.4	0
101	4307	103.5	0
101	4307	103.6	0
101	4307	103.7	0
101	4307	103.8	0
101	4307	103.9	0
101	4307	104	0
101	4307	104.1	0
101	4307	104.2	0
101	4307	104.3	0
101	4307	104.4	0
101	4307	104.5	0
101	4307	104.6	0
101	4307	104.7	0
101	4307	104.8	0
101	4307	104.9	0
101	4307	105	0
101	4307	105.1	0
101	4307	105.2	0
101	4307	105.3	0
101	4307	105.4	0
101	4307	105.5	0
101	4307	105.6	0
101	4307	105.7	0
101	4307	105.8	0
101	4307	105.9	0
101	4307	106	0
101	4307	106.1	0
101	4307	106.2	0
101	4307	106.3	0
101	4307	106.4	0
101	4307	106.5	0
101	4307	106.6	0
101	4307	106.7	0
101	4307	106.8	0
101	4307	106.9	0
101	4307	107	0
101	4307	107.1	0
101	4307	107.2	0
101	4307	107.3	0
101	4307	107.4	0
101	4307	107.5	0
101	4307	107.6	0
101	4307	107.7	0
101	4307	107.8	0
101	4307	107.9	0
101	4307	108	0
101	4307	108.1	0
101	4307	108.2	0
101	4307	108.3	0
101	4307	108.4	0
101	4307	108.5	0
101	4307	108.6	0
101	4307	108.7	0
101	4307	108.8	0
101	4307	108.9	0
101	4307	109	0
101	4307	109.1	0
101	4307	109.2	0
101	4307	109.3	0
101	4307	109.4	0
101	4307	109.5	0
101	4307	109.6	0
101	4307	109.7	0
101	4307	109.8	0
101	4307	109.9	0
101	4307	110	0
101	4307	110.1	0
101	4307	110.2	0
101	4307	110.3	0
101	4307	110.4	0
101	4307	110.5	0
101	4307	110.6	0
101	4307	110.7	0
101	4307	110.8	0
101	4307	110.9	0
101	4307	111	0
101	4307	111.1	0
101	4307	111.2	0
101	4307	111.3	0
101	4307	111.4	0
101	4307	111.5	0
101	4307	111.6	0
101	4307	111.7	0
101	4307	111.8	0
101	4307	111.9	0
101	4307	112	0
101	4307	112.1	0
101	4307	112.2	0
101	4307	112.3	0
101	4307	112.4	0
101	4307	112.5	0
101	4307	112.6	0
101	4307	112.7	0
101	4307	112.8	0
101	4307	112.9	0
101	4307	113	0
101	4307	113.1	0
101	4307	113.2	0
101	4307	113.3	0
101	4307	113.4	0
101	4307	113.5	0
101	4307	113.6	0
101	4307	113.7	0
101	4307	113.8	0
101	4307	113.9	0
101	4307	114	0
101	4307	114.1	0
101	4307	114.2	0
101	4307	114.3	0
101	4307	114.4	0
101	4307	114.5	0
101	4307	114.6	0
101	4307	114.7	0
101	4307	114.8	0
101	4307	114.9	0
101	4307	115	0
101	4307	115.1	0
101	4307	115.2	0
101	4307	115.3	0
101	4307	115.4	0
101	4307	115.5	0
101	4307	115.6	0
101	4307	115.7	0
101	4410	115.8	8000
101	4410	115.9	0
101	4410	116	0
101	4410	116.1	0
101	4410	116.2	0
101	4410	116.3	0
101	4410	116.4	0
101	4410	116.5	0
101	4410	116.6	0
101	4410	116.7	0
101	4410	116.8	0
101	4410	116.9	0
101	4410	117	0
101	4410	117.1	0
101	4410	117.2	0
101	4410	117.3	0
101	4410	117.4	0
101	4410	117.5	0
101	4410	117.6	0
101	4410	117.7	0
101	4410	117.8	0
101	4410	117.9	0
101	4410	118	0
101	4410	118.1	0
101	4410	118.2	0
101	4410	118.3	0
101	4410	118.4	0
101	4584	118.5	8000
101	4584	118.6	0
101	4584	118.7	0
101	4584	118.8	0
101	4584	118.9	0
101	4584	119	0
101	4584	119.1	0
101	4584	119.2	0
101	4584	119.3	0
101	4584	119.4	0
101	4584	119.5	0
101	4584	119.6	0
101	4584	119.7	0
101	4584	119.8	0
101	4584	119.9	0
101	4584	120	0
101	4584	120.1	0
101	4584	120.2	0
101	4584	120.3	0
101	4584	120.4	0
101	4584	120.5	0
101	4584	120.6	0
101	4584	120.7	0
101	4584	120.8	0
101	4584	120.9	0
101	4584	121	0
101	4584	121.1	0
101	4584	121.2	0
101	4584	121.3	0
101	4584	121.4	0
101	4584	121.5	0
101	4584	121.6	0
101	4584	121.7	0
101	4584	121.8	0
101	4584	121.9	0
101	4584	122	0
101	4584	122.1	0
101	4584	122.2	0
101	4584	122.3	0
101	4584	122.4	0
101	4584	122.5	0
101	4584	122.6	0
101	4584	122.7	0
101	4584	122.8	0
101	4584	122.9	0
101	4584	123	0
101	4584	123.1	0
101	4584	123.2	0
101	4584	123.3	0
101	5098	123.4	8000
101	5098	123.5	0
101	5098	123.6	0
101	5098	123.7	0
101	5098	123.8	0
101	5098	123.9	0
101	5098	124	0
101	5098	124.1	0
101	5098	124.2	0
101	5098	124.3	0
101	5098	124.4	0
101	5098	124.5	0
101	5098	124.6	0
101	5098	124.7	0
101	5098	124.8	0
101	5098	124.9	0
101	5098	125	0
101	5098	125.1	0
101	5098	125.2	0
101	5098	125.3	0
101	5098	125.4	0
101	5098	125.5	0
101	5098	125.6	0
101	5098	125.7	0
101	5098	125.8	0
101	5098	125.9	0
101	5098	126	0
101	5098	126.1	0
101	5098	126.2	0
101	5098	126.3	0
101	5098	126.4	0
101	5098	126.5	0
101	5098	126.6	0
101	5098	126.7	0
101	5098	126.8	0
101	5098	126.9	0
101	5098	127	0
101	5098	127.1	0
101	5098	127.2	0
101	5098	127.3	0
101	5098	127.4	0
101	5098	127.5	0
101	5098	127.6	0
101	5098	127.7	0
101	5098	127.8	0
101	5098	127.9	0
101	5098	128	0
101	5098	128.1	0
101	5098	128.2	0
101	5098	128.3	0
101	5098	128.4	0
101	5098	128.5	0
101	5098	128.6	0
101	5098	128.7	0
101	5098	128.8	0
101	5098	128.9	0
101	5098	129	0
101	5098	129.1	0
101	5098	129.2	0
101	5098	129.3	0
101	5098	129.4	0
101	5098	129.5	0
101	5098	129.6	0
101	5098	129.7	0
101	5098	129.8	0
101	5098	129.9	0
101	5098	130	0
101	5098	130.1	0
101	5098	130.2	0
101	5098	130.3	0
101	5098	130.4	0
101	5098	130.5	0
101	5098	130.6	0
101	5098	130.7	0
101	5098	130.8	0
101	5098	130.9	0
101	5098	131	0
101	5098	131.1	0
101	5098	131.2	0
101	5098	131.3	0
101	5098	131.4	0
101	5098	131.5	0
101	5098	131.6	0
101	5098	131.7	0
101	5098	131.8	0
101	5098	131.9	0
101	5098	132	0
101	5098	132.1	0
101	5098	132.2	0
101	5098	132.3	0
101	5098	132.4	0
101	5098	132.5	0
101	5098	132.6	0
101	5098	132.7	0
101	5098	132.8	0
101	5098	132.9	0
101	5098	133	0
101	5098	133.1	0
101	5098	133.2	0
101	5098	133.3	0
101	5098	133.4	0
101	5098	133.5	0
101	5098	133.6	0
101	5098	133.7	0
101	5098	133.8	0
101	5098	133.9	0
101	5098	134	0
101	5098	134.1	0
101	5098	134.2	0
101	5098	134.3	0
101	5098	134.4	0
101	5098	134.5	0
101	5098	134.6	0
101	5098	134.7	0
101	5098	134.8	0
101	5098	134.9	0
101	5098	135	0
101	5098	135.1	0
101	5098	135.2	0
101	5098	135.3	0
101	5098	135.4	0
101	5098	135.5	0
101	5098	135.6	0
101	5098	135.7	0
101	5098	135.8	0
101	5098	135.9	0
101	5098	136	0
101	5098	136.1	0
101	6051	136.2	8000
101	6051	136.3	0
101	6051	136.4	0
101	6051	136.5	0
101	6051	136.6	0
101	6051	136.7	0
101	6051	136.8	0
101	6051	136.9	0
101	6051	137	0
101	6051	137.1	0
101	6051	137.2	0
101	6051	137.3	0
101	6051	137.4	0
101	6051	137.5	0
101	6051	137.6	0
101	6051	137.7	0
101	6051	137.8	0
101	6051	137.9	0
101	6051	138	0
101	6051	138.1	0
101	6051	138.2	0
101	6051	138.3	0
101	6051	138.4	0
101	6051	138.5	0
101	6051	138.6	0
101	6051	138.7	0
101	6051	138.8	0
101	6051	138.9	0
101	6051	139	0
101	6051	139.1	0
101	6051	139.2	0
101	6051	139.3	0
101	6051	139.4	0
101	6051	139.5	0
101	6051	139.6	0
101	6051	139.7	0
101	6051	139.8	0
101	6051	139.9	0
101	6051	140	0
101	6051	140.1	0
101	6051	140.2	0
101	6051	140.3	0
101	6051	140.4	0
101	6051	140.5	0
101	6051	140.6	0
101	6051	140.7	0
101	6051	140.8	0
101	6051	140.9	0
101	6051	141	0
101	6051	141.1	0
101	6051	141.2	0
101	6051	141.3	0
101	6051	141.4	0
101	6051	141.5	0
101	6051	141.6	0
101	6051	141.7	0
101	6051	141.8	0
101	6051	141.9	0
101	6051	142	0
101	6051	142.1	0
101	6051	142.2	0
101	6051	142.3	0
101	6051	142.4	0
101	6051	142.5	0
101	6051	142.6	0
101	6051	142.7	0
101	6051	142.8	0
101	6051	142.9	0
101	6051	143	0
101	6051	143.1	0
101	6051	143.2	0
101	6051	143.3	0
101	6051	143.4	0
101	6051	143.5	0
101	6051	143.6	0
101	6051	143.7	0
101	6051	143.8	0
101	6051	143.9	0
101	6051	144	0
101	6051	144.1	0
101	6051	144.2	0
101	6051	144.3	0
101	6051	144.4	0
101	6051	144.5	0
101	6051	144.6	0
101	6051	144.7	0
101	6051	144.8	0
101	6051	144.9	0
101	6051	145	0
101	6051	145.1	0
101	6051	145.2	0
101	6051	145.3	0
101	6051	145.4	0
101	6051	145.5	0
101	6051	145.6	0
101	6051	145.7	0
101	6051	145.8	0
101	6051	145.9	0
101	6051	146	0
101	6051	146.1	0
101	6051	146.2	0
101	6051	146.3	0
101	6051	146.4	0
101	6051	146.5	0
101	6051	146.6	0
101	6051	146.7	0
101	6051	146.8	0
101	6051	146.9	0
101	6051	147	0
101	6051	147.1	0
101	6051	147.2	0
101	6051	147.3	0
101	6051	147.4	0
101	6051	147.5	0
101	6051	147.6	0
101	6051	147.7	0
101	6051	147.8	0
101	6051	147.9	0
101	6051	148	0
101	6051	148.1	0
101	6051	148.2	0
101	6051	148.3	0
101	6051	148.4	0
101	6051	148.5	0
101	6051	148.6	0
101	6051	148.7	0
101	6051	148.8	0
101	6051	148.9	0
101	6051	149	0
101	6051	149.1	0
101	6051	149.2	0
101	6051	149.3	0
101	6051	149.4	0
101	6051	149.5	0
101	6051	149.6	0
101	6051	149.7	0
101	6051	149.8	0
101	6051	149.9	0
101	6051	150	0
101	6051	150.1	0
101	6051	150.2	0
101	6051	150.3	0
101	6051	150.4	0
101	6051	150.5	0
101	6051	150.6	0
101	6051	150.7	0
101	6051	150.8	0
101	6051	150.9	0
101	6051	151	0
101	6051	151.1	0
101	6051	151.2	0
101	6051	151.3	0
101	6051	151.4	0
101	6051	151.5	0
101	6051	151.6	0
101	6051	151.7	0
101	6051	151.8	0
101	6051	151.9	0
101	6051	152	0
101	6051	152.1	0
101	6051	152.2	0
101	6051	152.3	0
101	6051	152.4	0
101	6051	152.5	0
101	6051	152.6	0
101	6051	152.7	0
101	6051	152.8	0
101	6051	152.9	0
101	6051	153	0
101	6051	153.1	0
101	6051	153.2	0
101	6051	153.3	0
101	6051	153.4	0
101	6051	153.5	0
101	6051	153.6	0
101	6051	153.7	0
101	6051	153.8	0
101	6051	153.9	0
101	6051	154	0
101	6051	154.1	0
101	6051	154.2	0
101	6051	154.3	0
101	6051	154.4	0
101	6051	154.5	0
101	6051	154.6	0
101	6051	154.7	0
101	6051	154.8	0
101	6051	154.9	0
101	6051	155	0
101	6051	155.1	0
101	6051	155.2	0
101	6051	155.3	0
101	6051	155.4	0
101	6051	155.5	0
101	6051	155.6	0
101	6051	155.7	0
101	6051	155.8	0
101	6051	155.9	0
101	6051	156	0
101	6051	156.1	0
101	6051	156.2	0
101	6051	156.3	0
101	6051	156.4	0
101	6051	156.5	0
101	6051	156.6	0
101	6051	156.7	0
101	6051	156.8	0
101	6051	156.9	0
101	6051	157	0
101	6051	157.1	0
101	6051	157.2	0
101	6051	157.3	0
101	6051	157.4	0
101	6051	157.5	0
101	6051	157.6	0
101	6051	157.7	0
101	6051	157.8	0
101	6051	157.9	0
101	6051	158	0
101	6051	158.1	0
101	6051	158.2	0
101	6051	158.3	0
101	6051	158.4	0
101	6051	158.5	0
101	6051	158.6	0
101	6051	158.7	0
101	6051	158.8	0
101	6051	158.9	0
101	6051	159	0
101	6051	159.1	0
101	6051	159.2	0
101	6051	159.3	0
101	6051	159.4	0
101	6051	159.5	0
101	6051	159.6	0
101	6051	159.7	0
101	6051	159.8	0
101	6051	159.9	0
101	6051	160	0
101	6051	160.1	0
101	6051	160.2	0
101	6051	160.3	0
101	6051	160.4	0
101	6051	160.5	0
101	6051	160.6	0
101	6051	160.7	0
101	6051	160.8	0
101	6051	160.9	0
101	6051	161	0
101	6051	161.1	0
101	6051	161.2	0
101	6051	161.3	0
101	6051	161.4	0
101	6122	161.5	8000
101	6122	161.6	0
101	6122	161.7	0
101	6122	161.8	0
101	6122	161.9	0
101	6122	162	0
101	6122	162.1	0
101	6122	162.2	0
101	6122	162.3	0
101	6122	162.4	0
101	6122	162.5	0
101	6122	162.6	0
101	6122	162.7	0
101	6122	162.8	0
101	6221	162.9	8000
101	6221	163	0
101	6221	163.1	0
101	6221	163.2	0
101	6221	163.3	0
101	6221	163.4	0
101	6221	163.5	0
101	6221	163.6	0
101	6221	163.7	0
101	6221	163.8	0
101	6676	163.9	8000
101	6676	164	0
101	6676	164.1	0
101	6676	164.2	0
101	6676	164.3	0
101	6676	164.4	0
101	6676	164.5	0
101	6676	164.6	0
101	6676	164.7	0
101	6676	164.8	0
101	6676	164.9	0
101	6676	165	0
101	6676	165.1	0
101	6676	165.2	0
101	6676	165.3	0
101	6676	165.4	0
101	6676	165.5	0
101	6676	165.6	0
101	6676	165.7	0
101	6676	165.8	0
101	6676	165.9	0
101	6676	166	0
101	6676	166.1	0
101	6676	166.2	0
101	6676	166.3	0
101	6676	166.4	0
101	6676	166.5	0
101	6676	166.6	0
101	6676	166.7	0
101	6676	166.8	0
101	6676	166.9	0
101	6676	167	0
101	6676	167.1	0
101	6676	167.2	0
101	6676	167.3	0
101	6676	167.4	0
101	6676	167.5	0
101	6676	167.6	0
101	6676	167.7	0
101	6676	167.8	0
101	6676	167.9	0
101	6676	168	0
101	6676	168.1	0
101	6676	168.2	0
101	6676	168.3	0
101	6676	168.4	0
101	6676	168.5	0
101	6676	168.6	0
101	6676	168.7	0
101	6676	168.8	0
101	6676	168.9	0
101	6676	169	0
101	6676	169.1	0
101	6676	169.2	0
101	6676	169.3	0
101	6676	169.4	0
101	6676	169.5	0
101	6676	169.6	0
101	6676	169.7	0
101	6676	169.8	0
101	6676	169.9	0
101	6676	170	0
101	6676	170.1	0
101	6676	170.2	0
101	6676	170.3	0
101	6676	170.4	0
101	6676	170.5	0
101	6676	170.6	0
101	6676	170.7	0
101	6676	170.8	0
101	6676	170.9	0
101	6676	171	0
101	6676	171.1	0
101	6676	171.2	0
101	6676	171.3	0
101	6676	171.4	0
101	6676	171.5	0
101	6676	171.6	0
101	6676	171.7	0
101	6676	171.8	0
101	6676	171.9	0
101	6676	172	0
101	6676	172.1	0
101	6676	172.2	0
101	6676	172.3	0
101	6676	172.4	0
101	6676	172.5	0
101	6676	172.6	0
101	6676	172.7	0
101	6676	172.8	0
101	6676	172.9	0
101	6676	173	0
101	6676	173.1	0
101	6676	173.2	0
101	6676	173.3	0
101	6676	173.4	0
101	6676	173.5	0
101	6676	173.6	0
101	6676	173.7	0
101	6676	173.8	0
101	6676	173.9	0
101	6676	174	0
101	6676	174.1	0
101	6676	174.2	0
101	6676	174.3	0
101	6676	174.4	0
101	6676	174.5	0
101	6676	174.6	0
101	6676	174.7	0
101	6676	174.8	0
101	6676	174.9	0
101	6676	175	0
101	6676	175.1	0
101	6676	175.2	0
101	6676	175.3	0
101	6676	175.4	0
101	6676	175.5	0
101	6676	175.6	0
101	6676	175.7	0
101	6676	175.8	0
101	6676	175.9	0
101	6676	176	0
101	6676	176.1	0
101	6676	176.2	0
101	6676	176.3	0
101	6676	176.4	0
101	6676	176.5	0
101	6676	176.6	0
101	6676	176.7	0
101	6676	176.8	0
101	6676	176.9	0
101	6676	177	0
101	6676	177.1	0
101	6676	177.2	0
101	6676	177.3	0
101	6676	177.4	0
101	6721	177.5	8000
101	6721	177.6	0
101	6721	177.7	0
101	6721	177.8	0
101	6721	177.9	0
101	6721	178	0
101	6721	178.1	0
101	6721	178.2	0
101	7417	178.3	8000
101	7417	178.4	0
101	7417	178.5	0
101	7417	178.6	0
101	7417	178.7	0
101	7417	178.8	0
101	7417	178.9	0
101	7417	179	0
101	7417	179.1	0
101	7417	179.2	0
101	7417	179.3	0
101	7417	179.4	0
101	7417	179.5	0
101	7417	179.6	0
101	7417	179.7	0
101	7417	179.8	0
101	7417	179.9	0
101	7417	180	0
101	7417	180.1	0
101	7417	180.2	0
101	7417	180.3	0
101	7417	180.4	0
101	7417	180.5	0
101	7417	180.6	0
101	7417	180.7	0
101	7417	180.8	0
101	7417	180.9	0
101	7417	181	0
101	7417	181.1	0
101	7417	181.2	0
101	7417	181.3	0
101	7417	181.4	0
101	7417	181.5	0
101	7417	181.6	0
101	7417	181.7	0
101	7417	181.8	0
101	7417	181.9	0
101	7417	182	0
101	7417	182.1	0
101	7417	182.2	0
101	7417	182.3	0
101	7417	182.4	0
101	7417	182.5	0
101	7417	182.6	0
101	7417	182.7	0
101	7417	182.8	0
101	7417	182.9	0
101	7417	183	0
101	7417	183.1	0
101	7417	183.2	0
101	7417	183.3	0
101	7417	183.4	0
101	7417	183.5	0
101	7417	183.6	0
101	7417	183.7	0
101	7417	183.8	0
101	7417	183.9	0
101	7417	184	0
101	7417	184.1	0
101	7417	184.2	0
101	7417	184.3	0
101	7417	184.4	0
101	7417	184.5	0
101	7417	184.6	0
101	7417	184.7	0
101	7417	184.8	0
101	7417	184.9	0
101	7417	185	0
101	7417	185.1	0
101	7417	185.2	0
101	7417	185.3	0
101	7417	185.4	0
101	7417	185.5	0
101	7417	185.6	0
101	7417	185.7	0
101	7417	185.8	0
101	7417	185.9	0
101	7417	186	0
101	7417	186.1	0
101	7417	186.2	0
101	7417	186.3	0
101	7417	186.4	0
101	7417	186.5	0
101	7417	186.6	0
101	7417	186.7	0
101	7417	186.8	0
101	7417	186.9	0
101	7417	187	0
101	7417	187.1	0
101	7417	187.2	0
101	7417	187.3	0
101	7417	187.4	0
101	7417	187.5	0
101	7417	187.6	0
101	7417	187.7	0
101	7417	187.8	0
101	7417	187.9	0
101	7417	188	0
101	7417	188.1	0
101	7417	188.2	0
101	7417	188.3	0
101	7417	188.4	0
101	7417	188.5	0
101	7417	188.6	0
101	7417	188.7	0
101	7417	188.8	0
101	7417	188.9	0
101	7417	189	0
101	7417	189.1	0
101	7417	189.2	0
101	7417	189.3	0
101	7417	189.4	0
101	7417	189.5	0
101	7417	189.6	0
101	7417	189.7	0
101	7417	189.8	0
101	7417	189.9	0
101	7417	190	0
101	7417	190.1	0
101	7417	190.2	0
101	7417	190.3	0
101	7417	190.4	0
101	7417	190.5	0
101	7417	190.6	0
101	7417	190.7	0
101	7417	190.8	0
101	7417	190.9	0
101	7417	191	0
101	7417	191.1	0
101	7417	191.2	0
101	7417	191.3	0
101	7417	191.4	0
101	7417	191.5	0
101	7417	191.6	0
101	7417	191.7	0
101	7417	191.8	0
101	7417	191.9	0
101	7417	192	0
101	7417	192.1	0
101	7417	192.2	0
101	7417	192.3	0
101	7417	192.4	0
101	7417	192.5	0
101	7417	192.6	0
101	7417	192.7	0
101	7417	192.8	0
101	7417	192.9	0
101	7417	193	0
101	7417	193.1	0
101	7417	193.2	0
101	7417	193.3	0
101	7417	193.4	0
101	7417	193.5	0
101	7417	193.6	0
101	7417	193.7	0
101	7417	193.8	0
101	7417	193.9	0
101	7417	194	0
101	7417	194.1	0
101	7417	194.2	0
101	7417	194.3	0
101	7417	194.4	0
101	7417	194.5	0
101	7417	194.6	0
101	7417	194.7	0
101	7417	194.8	0
101	7417	194.9	0
101	7417	195	0
101	7417	195.1	0
101	7417	195.2	0
101	7417	195.3	0
101	7417	195.4	0
101	7417	195.5	0
101	7417	195.6	0
101	7417	195.7	0
101	7417	195.8	0
101	7417	195.9	0
101	7417	196	0
101	7417	196.1	0
101	7417	196.2	0
101	7417	196.3	0
101	7417	196.4	0
101	7417	196.5	0
101	7417	196.6	0
101	7417	196.7	0
101	7417	196.8	0
101	7417	196.9	0
101	7417	197	0
101	8074	197.1	8000
101	8074	197.2	0
101	8074	197.3	0
101	8074	197.4	0
101	8074	197.5	0
101	8074	197.6	0
101	8074	197.7	0
101	8074	197.8	0
101	8074	197.9	0
101	8074	198	0
101	8074	198.1	0
101	8074	198.2	0
101	8074	198.3	0
101	8074	198.4	0
101	8074	198.5	0
101	8074	198.6	0
101	8074	198.7	0
101	8074	198.8	0
101	8074	198.9	0
101	8074	199	0
101	8074	199.1	0
101	8074	199.2	0
101	8074	199.3	0
101	8074	199.4	0
101	8074	199.5	0
101	8074	199.6	0
101	8074	199.7	0
101	8074	199.8	0
101	8074	199.9	0
101	8074	200	0
101	8074	200.1	0
101	8074	200.2	0
101	8074	200.3	0
101	8074	200.4	0
101	8074	200.5	0
101	8074	200.6	0
101	8074	200.7	0
101	8074	200.8	0
101	8074	200.9	0
101	8074	201	0
101	8074	201.1	0
101	8074	201.2	0
101	8074	201.3	0
101	8074	201.4	0
101	8074	201.5	0
101	8074	201.6	0
101	8074	201.7	0
101	8074	201.8	0
101	8074	201.9	0
101	8074	202	0
101	8074	202.1	0
101	8074	202.2	0
101	8074	202.3	0
101	8074	202.4	0
101	8074	202.5	0
101	8074	202.6	0
101	8074	202.7	0
101	8074	202.8	0
101	8074	202.9	0
101	8074	203	0
101	8074	203.1	0
101	8074	203.2	0
101	8074	203.3	0
101	8074	203.4	0
101	8074	203.5	0
101	8074	203.6	0
101	8074	203.7	0
101	8074	203.8	0
101	8074	203.9	0
101	8074	204	0
101	8074	204.1	0
101	8074	204.2	0
101	8074	204.3	0
101	8074	204.4	0
101	8074	204.5	0
101	8074	204.6	0
101	8074	204.7	0
101	8074	204.8	0
101	8074	204.9	0
101	8074	205	0
101	8074	205.1	0
101	8074	205.2	0
101	8074	205.3	0
101	8074	205.4	0
101	8074	205.5	0
101	8074	205.6	0
101	8074	205.7	0
101	8074	205.8	0
101	8074	205.9	0
101	8074	206	0
101	8074	206.1	0
101	8074	206.2	0
101	8074	206.3	0
101	8074	206.4	0
101	8074	206.5	0
101	8074	206.6	0
101	8074	206.7	0
101	8074	206.8	0
101	8074	206.9	0
101	8074	207	0
101	8074	207.1	0
101	8074	207.2	0
101	8074	207.3	0
101	8074	207.4	0
101	8074	207.5	0
101	8074	207.6	0
101	8074	207.7	0
101	8074	207.8	0
101	8074	207.9	0
101	8074	208	0
101	8074	208.1	0
101	8074	208.2	0
101	8074	208.3	0
101	8074	208.4	0
101	8074	208.5	0
101	8074	208.6	0
101	8074	208.7	0
101	8074	208.8	0
101	8074	208.9	0
101	8074	209	0
101	8074	209.1	0
101	8074	209.2	0
101	8074	209.3	0
101	8074	209.4	0
101	8074	209.5	0
101	8074	209.6	0
101	8074	209.7	0
101	8074	209.8	0
101	8074	209.9	0
101	8074	210	0
101	8074	210.1	0
101	8074	210.2	0
101	8074	210.3	0
101	8074	210.4	0
101	8074	210.5	0
101	8074	210.6	0
101	8074	210.7	0
101	8074	210.8	0
101	8074	210.9	0
101	8074	211	0
101	8074	211.1	0
101	8074	211.2	0
101	8074	211.3	0
101	8074	211.4	0
101	8074	211.5	0
101	8418	211.6	8000
101	8418	211.7	0
101	8418	211.8	0
101	8418	211.9	0
101	8418	212	0
101	8418	212.1	0
101	8418	212.2	0
101	8418	212.3	0
101	8418	212.4	0
101	8418	212.5	0
101	8418	212.6	0
101	8418	212.7	0
101	8418	212.8	0
101	8418	212.9	0
101	8418	213	0
101	8418	213.1	0
101	8418	213.2	0
101	8418	213.3	0
101	8418	213.4	0
101	8418	213.5	0
101	8418	213.6	0
101	8418	213.7	0
101	8418	213.8	0
101	8418	213.9	0
101	8418	214	0
101	8418	214.1	0
101	8418	214.2	0
101	8418	214.3	0
101	8418	214.4	0
101	8418	214.5	0
101	8418	214.6	0
101	8418	214.7	0
101	8418	214.8	0
101	8418	214.9	0
101	8418	215	0
101	8418	215.1	0
101	8418	215.2	0
101	8418	215.3	0
101	8418	215.4	0
101	8418	215.5	0
101	8418	215.6	0
101	8418	215.7	0
101	8418	215.8	0
101	8418	215.9	0
101	8418	216	0
101	8418	216.1	0
101	8418	216.2	0
101	8418	216.3	0
101	8418	216.4	0
101	8418	216.5	0
101	8418	216.6	0
101	8418	216.7	0
101	8418	216.8	0
101	8418	216.9	0
101	8418	217	0
101	8418	217.1	0
101	8418	217.2	0
101	8418	217.3	0
101	8418	217.4	0
101	8418	217.5	0
101	8418	217.6	0
101	8418	217.7	0
101	8418	217.8	0
101	8418	217.9	0
101	8418	218	0
101	8418	218.1	0
101	8418	218.2	0
101	8418	218.3	0
101	8418	218.4	0
101	8418	218.5	0
101	8418	218.6	0
101	8418	218.7	0
101	8418	218.8	0
101	8418	218.9	0
101	8418	219	0
101	8418	219.1	0
101	8418	219.2	0
101	8418	219.3	0
101	8418	219.4	0
101	8418	219.5	0
101	8418	219.6	0
101	8418	219.7	0
101	8418	219.8	0
101	8418	219.9	0
101	8418	220	0
101	8418	220.1	0
101	8418	220.2	0
101	8418	220.3	0
101	8418	220.4	0
101	8418	220.5	0
101	8418	220.6	0
101	8418	220.7	0
101	8418	220.8	0
101	8418	220.9	0
101	8418	221	0
101	8418	221.1	0
101	8418	221.2	0
101	8418	221.3	0
101	8418	221.4	0
101	8418	221.5	0
101	8418	221.6	0
101	8418	221.7	0
101	8418	221.8	0
101	8418	221.9	0
101	8725	222	8000
101	8725	222.1	0
101	8725	222.2	0
101	8725	222.3	0
101	8725	222.4	0
101	8725	222.5	0
101	8725	222.6	0
101	8725	222.7	0
101	8725	222.8	0
101	8725	222.9	0
101	8725	223	0
101	8725	223.1	0
101	8725	223.2	0
101	8725	223.3	0
101	8725	223.4	0
101	8725	223.5	0
101	8725	223.6	0
101	8725	223.7	0
101	8725	223.8	0
101	8725	223.9	0
101	8725	224	0
101	8725	224.1	0
101	8725	224.2	0
101	8725	224.3	0
101	8725	224.4	0
101	8725	224.5	0
101	8725	224.6	0
101	8725	224.7	0
101	8725	224.8	0
101	8725	224.9	0
101	8725	225	0
101	8725	225.1	0
101	8725	225.2	0
101	8725	225.3	0
101	8725	225.4	0
101	8725	225.5	0
101	8725	225.6	0
101	8725	225.7	0
101	8725	225.8	0
101	8725	225.9	0
101	8725	226	0
101	8725	226.1	0
101	8725	226.2	0
101	8725	226.3	0
101	8725	226.4	0
101	8725	226.5	0
101	8725	226.6	0
101	8725	226.7	0
101	8725	226.8	0
101	8725	226.9	0
101	8725	227	0
101	8725	227.1	0
101	8725	227.2	0
101	8725	227.3	0
101	8725	227.4	0
101	8725	227.5	0
101	8725	227.6	0
101	8725	227.7	0
101	8725	227.8	0
101	8725	227.9	0
101	8725	228	0
101	8725	228.1	0
101	8725	228.2	0
101	8725	228.3	0
101	8725	228.4	0
101	8725	228.5	0
101	8725	228.6	0
101	8725	228.7	0
101	8725	228.8	0
101	8725	228.9	0
101	8725	229	0
101	8725	229.1	0
101	8725	229.2	0
101	8725	229.3	0
101	8725	229.4	0
101	8725	229.5	0
101	8725	229.6	0
101	8725	229.7	0
101	8725	229.8	0
101	8725	229.9	0
101	8725	230	0
101	8725	230.1	0
101	8725	230.2	0
101	8725	230.3	0
101	8725	230.4	0
101	8725	230.5	0
101	8725	230.6	0
101	8725	230.7	0
101	8725	230.8	0
101	8725	230.9	0
101	8725	231	0
101	8725	231.1	0
101	8725	231.2	0
101	8824	231.3	8000
101	8824	231.4	0
101	8824	231.5	0
101	8824	231.6	0
101	8824	231.7	0
101	8824	231.8	0
101	8824	231.9	0
101	8824	232	0
101	8824	232.1	0
101	8824	232.2	0
101	8824	232.3	0
101	8824	232.4	0
101	8824	232.5	0
101	8824	232.6	0
101	8824	232.7	0
101	8824	232.8	0
101	8824	232.9	0
101	8824	233	0
101	8824	233.1	0
101	8824	233.2	0
101	8824	233.3	0
101	8824	233.4	0
101	8824	233.5	0
101	8824	233.6	0
101	8824	233.7	0
101	9454	233.8	8000
101	9454	233.9	0
101	9454	234	0
101	9454	234.1	0
101	9454	234.2	0
101	9454	234.3	0
101	9454	234.4	0
101	9454	234.5	0
101	9454	234.6	0
101	9454	234.7	0
101	9454	234.8	0
101	9454	234.9	0
101	9454	235	0
101	9454	235.1	0
101	9454	235.2	0
101	9454	235.3	0
101	9454	235.4	0
101	9454	235.5	0
101	9454	235.6	0
101	9454	235.7	0
101	9454	235.8	0
101	9454	235.9	0
101	9454	236	0
101	9454	236.1	0
101	9454	236.2	0
101	9454	236.3	0
101	9454	236.4	0
101	9454	236.5	0
101	9454	236.6	0
101	9454	236.7	0
101	9454	236.8	0
101	9454	236.9	0
101	9454	237	0
101	9454	237.1	0
101	9454	237.2	0
101	9454	237.3	0
101	9454	237.4	0
101	9454	237.5	0
101	9454	237.6	0
101	9454	237.7	0
101	9454	237.8	0
101	9454	237.9	0
101	9454	238	0
101	9454	238.1	0
101	9454	238.2	0
101	9454	238.3	0
101	9454	238.4	0
101	9454	238.5	0
101	9454	238.6	0
101	9454	238.7	0
101	9454	238.8	0
101	9454	238.9	0
101	9454	239	0
101	9454	239.1	0
101	9454	239.2	0
101	9454	239.3	0
101	9454	239.4	0
101	9454	239.5	0
101	9454	239.6	0
101	9454	239.7	0
101	9454	239.8	0
101	9454	239.9	0
101	9454	240	0
101	9454	240.1	0
101	9454	240.2	0
101	9454	240.3	0
101	9454	240.4	0
101	9454	240.5	0
101	9454	240.6	0
101	9454	240.7	0
101	9454	240.8	0
101	9454	240.9	0
101	9454	241	0
101	9454	241.1	0
101	9454	241.2	0
101	9454	241.3	0
101	9454	241.4	0
101	9454	241.5	0
101	9454	241.6	0
101	9454	241.7	0
101	9454	241.8	0
101	9454	241.9	0
101	9454	242	0
101	9454	242.1	0
101	9454	242.2	0
101	9454	242.3	0
101	9454	242.4	0
101	9454	242.5	0
101	9454	242.6	0
101	9454	242.7	0
101	9454	242.8	0
101	9454	242.9	0
101	9454	243	0
101	9454	243.1	0
101	9454	243.2	0
101	9454	243.3	0
101	9454	243.4	0
101	9454	243.5	0
101	9454	243.6	0
101	9454	243.7	0
101	9454	243.8	0
101	9454	243.9	0
101	9454	244	0
101	9454	244.1	0
101	9454	244.2	0
101	9454	244.3	0
101	9454	244.4	0
101	9454	244.5	0
101	9454	244.6	0
101	9454	244.7	0
101	9454	244.8	0
101	9454	244.9	0
101	9454	245	0
101	9454	245.1	0
101	9454	245.2	0
101	9454	245.3	0
101	9454	245.4	0
101	9454	245.5	0
101	9454	245.6	0
101	9454	245.7	0
101	9454	245.8	0
101	9454	245.9	0
101	9454	246	0
101	9454	246.1	0
101	9454	246.2	0
101	9454	246.3	0
101	9454	246.4	0
101	9454	246.5	0
101	9454	246.6	0
101	9454	246.7	0
101	9454	246.8	0
101	9454	246.9	0
101	9454	247	0
101	9454	247.1	0
101	9454	247.2	0
101	9454	247.3	0
101	9454	247.4	0
101	9454	247.5	0
101	9454	247.6	0
101	9454	247.7	0
101	9454	247.8	0
101	9454	247.9	0
101	9454	248	0
101	9454	248.1	0
101	9454	248.2	0
101	9454	248.3	0
101	9454	248.4	0
101	9454	248.5	0
101	9454	248.6	0
101	9454	248.7	0
101	9454	248.8	0
101	9454	248.9	0
101	9454	249	0
101	9454	249.1	0
101	9454	249.2	0
101	9454	249.3	0
101	9454	249.4	0
101	9454	249.5	0
101	9454	249.6	0
101	9454	249.7	0
101	9454	249.8	0
101	9454	249.9	0
101	9454	250	0
101	9454	250.1	0
101	9454	250.2	0
101	9454	250.3	0
101	9454	250.4	0
101	9454	250.5	0
101	9454	250.6	0
101	9454	250.7	0
101	9789	250.8	8000
101	9789	250.9	0
101	9789	251	0
101	9789	251.1	0
101	9789	251.2	0
101	9789	251.3	0
101	9789	251.4	0
101	9789	251.5	0
101	9789	251.6	0
101	9789	251.7	0
101	9789	251.8	0
101	9789	251.9	0
101	9789	252	0
101	9789	252.1	0
101	9789	252.2	0
101	9789	252.3	0
101	9789	252.4	0
101	9789	252.5	0
101	9789	252.6	0
101	9789	252.7	0
101	9789	252.8	0
101	9789	252.9	0
101	9789	253	0
101	9789	253.1	0
101	9789	253.2	0
101	9789	253.3	0
101	9789	253.4	0
101	9789	253.5	0
101	9789	253.6	0
101	9789	253.7	0
101	9789	253.8	0
101	9789	253.9	0
101	9789	254	0
101	9789	254.1	0
101	9789	254.2	0
101	9789	254.3	0
101	9789	254.4	0
101	9789	254.5	0
101	9789	254.6	0
101	9789	254.7	0
101	9789	254.8	0
101	9789	254.9	0
101	9789	255	0
101	9789	255.1	0
101	9789	255.2	0
101	9789	255.3	0
101	9789	255.4	0
101	9789	255.5	0
101	9789	255.6	0
101	9789	255.7	0
101	9789	255.8	0
101	9789	255.9	0
101	9789	256	0
101	9789	256.1	0
101	9789	256.2	0
101	9789	256.3	0
101	9789	256.4	0
101	9789	256.5	0
101	9789	256.6	0
101	9789	256.7	0
101	9789	256.8	0
101	9789	256.9	0
101	9789	257	0
101	9789	257.1	0
101	9789	257.2	0
101	9789	257.3	0
101	9789	257.4	0
101	10107	257.5	8000
101	10107	257.6	0
101	10107	257.7	0
101	10107	257.8	0
101	10107	257.9	0
101	10107	258	0
101	10107	258.1	0
101	10107	258.2	0
101	10107	258.3	0
101	10107	258.4	0
101	10107	258.5	0
101	10107	258.6	0
101	10107	258.7	0
101	10107	258.8	0
101	10107	258.9	0
101	10107	259	0
101	10107	259.1	0
101	10107	259.2	0
101	10107	259.3	0
101	10107	259.4	0
101	10107	259.5	0
101	10107	259.6	0
101	10107	259.7	0
101	10107	259.8	0
101	10107	259.9	0
101	10107	260	0
101	10107	260.1	0
101	10107	260.2	0
101	10107	260.3	0
101	10107	260.4	0
101	10107	260.5	0
101	10107	260.6	0
101	10107	260.7	0
101	10107	260.8	0
101	10107	260.9	0
101	10107	261	0
101	10107	261.1	0
101	10107	261.2	0
101	10107	261.3	0
101	10107	261.4	0
101	10107	261.5	0
101	10107	261.6	0
101	10107	261.7	0
101	10107	261.8	0
101	10107	261.9	0
101	10107	262	0
101	10107	262.1	0
101	10107	262.2	0
101	10107	262.3	0
101	10107	262.4	0
101	10107	262.5	0
101	10107	262.6	0
101	10107	262.7	0
101	10107	262.8	0
101	10107	262.9	0
101	10107	263	0
101	10107	263.1	0
101	10107	263.2	0
101	10107	263.3	0
101	10107	263.4	0
101	10107	263.5	0
101	10107	263.6	0
101	10107	263.7	0
101	10107	263.8	0
101	10107	263.9	0
101	10107	264	0
101	10107	264.1	0
101	10107	264.2	0
101	10107	264.3	0
101	10107	264.4	0
101	10107	264.5	0
101	10107	264.6	0
101	10107	264.7	0
101	10107	264.8	0
101	10107	264.9	0
101	10107	265	0
101	10107	265.1	0
101	10107	265.2	0
101	10107	265.3	0
101	10107	265.4	0
101	10107	265.5	0
101	10107	265.6	0
101	10107	265.7	0
101	10107	265.8	0
101	10107	265.9	0
101	10107	266	0
101	10107	266.1	0
101	10107	266.2	0
101	10107	266.3	0
101	10107	266.4	0
101	10107	266.5	0
101	10107	266.6	0
101	10107	266.7	0
101	10107	266.8	0
101	10107	266.9	0
101	10107	267	0
101	10472	267.1	8000
101	10472	267.2	0
101	10472	267.3	0
101	10472	267.4	0
101	10472	267.5	0
101	10472	267.6	0
101	10472	267.7	0
101	10472	267.8	0
101	10472	267.9	0
101	10472	268	0
101	10472	268.1	0
101	10472	268.2	0
101	10472	268.3	0
101	10472	268.4	0
101	10472	268.5	0
101	10472	268.6	0
101	10472	268.7	0
101	10472	268.8	0
101	10472	268.9	0
101	10472	269	0
101	10472	269.1	0
101	10472	269.2	0
101	10472	269.3	0
101	10472	269.4	0
101	10472	269.5	0
101	10472	269.6	0
101	10472	269.7	0
101	10472	269.8	0
101	10472	269.9	0
101	10472	270	0
101	10472	270.1	0
101	10472	270.2	0
101	10472	270.3	0
101	10472	270.4	0
101	10472	270.5	0
101	10472	270.6	0
101	10472	270.7	0
101	10472	270.8	0
101	10472	270.9	0
101	10472	271	0
101	10472	271.1	0
101	10472	271.2	0
101	10472	271.3	0
101	10472	271.4	0
101	10472	271.5	0
101	10472	271.6	0
101	10472	271.7	0
101	10472	271.8	0
101	10472	271.9	0
101	10472	272	0
101	10472	272.1	0
101	10472	272.2	0
101	10472	272.3	0
101	10472	272.4	0
101	10472	272.5	0
101	10472	272.6	0
101	10472	272.7	0
101	10472	272.8	0
101	10472	272.9	0
101	10472	273	0
101	10472	273.1	0
101	10472	273.2	0
101	10472	273.3	0
101	10472	273.4	0
101	10472	273.5	0
101	10472	273.6	0
101	10472	273.7	0
101	10472	273.8	0
101	10472	273.9	0
101	10472	274	0
101	10472	274.1	0
101	10472	274.2	0
101	10472	274.3	0
101	10472	274.4	0
101	10472	274.5	0
101	10472	274.6	0
101	10472	274.7	0
101	10472	274.8	0
101	10472	274.9	0
101	10472	275	0
101	10472	275.1	0
101	10472	275.2	0
101	10472	275.3	0
101	10472	275.4	0
101	10472	275.5	0
101	10472	275.6	0
101	10472	275.7	0
101	10472	275.8	0
101	10472	275.9	0
101	10472	276	0
101	10472	276.1	0
101	10472	276.2	0
101	10472	276.3	0
101	10472	276.4	0
101	10472	276.5	0
101	10472	276.6	0
101	10472	276.7	0
101	10472	276.8	0
101	10472	276.9	0
101	10472	277	0
101	10472	277.1	0
101	10472	277.2	0
101	10472	277.3	0
101	10472	277.4	0
101	10472	277.5	0
101	10472	277.6	0
101	10472	277.7	0
101	10472	277.8	0
101	10472	277.9	0
101	10472	278	0
101	10472	278.1	0
101	10472	278.2	0
101	10472	278.3	0
101	11105	278.4	8000
101	11105	278.5	0
101	11105	278.6	0
101	11105	278.7	0
101	11105	278.8	0
101	11105	278.9	0
101	11105	279	0
101	11105	279.1	0
101	11105	279.2	0
101	11105	279.3	0
101	11105	279.4	0
101	11105	279.5	0
101	11105	279.6	0
101	11105	279.7	0
101	11105	279.8	0
101	11105	279.9	0
101	11105	280	0
101	11105	280.1	0
101	11105	280.2	0
101	11105	280.3	0
101	11105	280.4	0
101	11105	280.5	0
101	11105	280.6	0
101	11105	280.7	0
101	11105	280.8	0
101	11105	280.9	0
101	11105	281	0
101	11105	281.1	0
101	11105	281.2	0
101	11105	281.3	0
101	11105	281.4	0
101	11105	281.5	0
101	11105	281.6	0
101	11105	281.7	0
101	11105	281.8	0
101	11105	281.9	0
101	11105	282	0
101	11105	282.1	0
101	11105	282.2	0
101	11105	282.3	0
101	11105	282.4	0
101	11105	282.5	0
101	11105	282.6	0
101	11105	282.7	0
101	11105	282.8	0
101	11105	282.9	0
101	11105	283	0
101	11105	283.1	0
101	11105	283.2	0
101	11105	283.3	0
101	11105	283.4	0
101	11105	283.5	0
101	11105	283.6	0
101	11105	283.7	0
101	11105	283.8	0
101	11105	283.9	0
101	11105	284	0
101	11105	284.1	0
101	11105	284.2	0
101	11105	284.3	0
101	11105	284.4	0
101	11105	284.5	0
101	11105	284.6	0
101	11105	284.7	0
101	11105	284.8	0
101	11105	284.9	0
101	11105	285	0
101	11105	285.1	0
101	11105	285.2	0
101	11105	285.3	0
101	11105	285.4	0
101	11105	285.5	0
101	11105	285.6	0
101	11105	285.7	0
101	11105	285.8	0
101	11105	285.9	0
101	11105	286	0
101	11105	286.1	0
101	11105	286.2	0
101	11105	286.3	0
101	11105	286.4	0
101	11105	286.5	0
101	11105	286.6	0
101	11105	286.7	0
101	11105	286.8	0
101	11105	286.9	0
101	11105	287	0
101	11105	287.1	0
101	11105	287.2	0
101	11105	287.3	0
101	11105	287.4	0
101	11105	287.5	0
101	11105	287.6	0
101	11105	287.7	0
101	11105	287.8	0
101	11105	287.9	0
101	11105	288	0
101	11105	288.1	0
101	11105	288.2	0
101	11105	288.3	0
101	11105	288.4	0
101	11105	288.5	0
101	11105	288.6	0
101	11105	288.7	0
101	11105	288.8	0
101	11105	288.9	0
101	11105	289	0
101	11105	289.1	0
101	11105	289.2	0
101	11105	289.3	0
101	11105	289.4	0
101	11105	289.5	0
101	11105	289.6	0
101	11105	289.7	0
101	11105	289.8	0
101	11105	289.9	0
101	11105	290	0
101	11105	290.1	0
101	11105	290.2	0
101	11105	290.3	0
101	11105	290.4	0
101	11105	290.5	0
101	11105	290.6	0
101	11105	290.7	0
101	11105	290.8	0
101	11105	290.9	0
101	11105	291	0
101	11105	291.1	0
101	11105	291.2	0
101	11105	291.3	0
101	11105	291.4	0
101	11105	291.5	0
101	11105	291.6	0
101	11105	291.7	0
101	11105	291.8	0
101	11105	291.9	0
101	11105	292	0
101	11105	292.1	0
101	11105	292.2	0
101	11105	292.3	0
101	11105	292.4	0
101	11105	292.5	0
101	11105	292.6	0
101	11105	292.7	0
101	11105	292.8	0
101	11105	292.9	0
101	11105	293	0
101	11105	293.1	0
101	11105	293.2	0
101	11105	293.3	0
101	11105	293.4	0
101	11105	293.5	0
101	11105	293.6	0
101	11105	293.7	0
101	11105	293.8	0
101	11105	293.9	0
101	11105	294	0
101	11105	294.1	0
101	11105	294.2	0
101	11105	294.3	0
101	11105	294.4	0
101	11105	294.5	0
101	11350	294.6	8000
101	11350	294.7	0
101	11350	294.8	0
101	11350	294.9	0
101	11350	295	0
101	11350	295.1	0
101	11350	295.2	0
101	11350	295.3	0
101	11350	295.4	0
101	11350	295.5	0
101	11350	295.6	0
101	11350	295.7	0
101	11350	295.8	0
101	11350	295.9	0
101	11350	296	0
101	11350	296.1	0
101	11350	296.2	0
101	11350	296.3	0
101	11350	296.4	0
101	11350	296.5	0
101	11350	296.6	0
101	11350	296.7	0
101	11350	296.8	0
101	11350	296.9	0
101	11350	297	0
101	11350	297.1	0
101	11350	297.2	0
101	11350	297.3	0
101	11350	297.4	0
101	11350	297.5	0
101	11350	297.6	0
101	11350	297.7	0
101	11350	297.8	0
101	11350	297.9	0
101	11350	298	0
101	11350	298.1	0
101	11350	298.2	0
101	11350	298.3	0
101	11350	298.4	0
101	11350	298.5	0
101	11675	298.6	8000
101	11675	298.7	0
101	11675	298.8	0
101	11675	298.9	0
101	11675	299	0
101	11675	299.1	0
101	11675	299.2	0
101	11675	299.3	0
101	11675	299.4	0
101	11675	299.5	0
101	11675	299.6	0
101	11675	299.7	0
101	11675	299.8	0
101	11675	299.9	0
101	11675	300	0
101	11675	300.1	0
101	11675	300.2	0
101	11675	300.3	0
101	11675	300.4	0
101	11675	300.5	0
101	11675	300.6	0
101	11675	300.7	0
101	11675	300.8	0
101	11675	300.9	0
101	11675	301	0
101	11675	301.1	0
101	11675	301.2	0
101	11675	301.3	0
101	11675	301.4	0
101	11675	301.5	0
101	11675	301.6	0
101	11675	301.7	0
101	11675	301.8	0
101	11675	301.9	0
101	11675	302	0
101	11675	302.1	0
101	11675	302.2	0
101	11675	302.3	0
101	11675	302.4	0
101	11675	302.5	0
101	11675	302.6	0
101	11675	302.7	0
101	11675	302.8	0
101	11675	302.9	0
101	11675	303	0
101	11675	303.1	0
101	11675	303.2	0
101	11675	303.3	0
101	11675	303.4	0
101	11675	303.5	0
101	11675	303.6	0
101	11675	303.7	0
101	11675	303.8	0
101	11675	303.9	0
101	11675	304	0
101	11675	304.1	0
101	11675	304.2	0
101	11675	304.3	0
101	11675	304.4	0
101	11675	304.5	0
101	11675	304.6	0
101	11675	304.7	0
101	11675	304.8	0
101	11675	304.9	0
101	11675	305	0
101	11675	305.1	0
101	11675	305.2	0
101	11675	305.3	0
101	11675	305.4	0
101	11675	305.5	0
101	11675	305.6	0
101	11675	305.7	0
101	11675	305.8	0
101	11675	305.9	0
101	11675	306	0
101	11675	306.1	0
101	11675	306.2	0
101	11675	306.3	0
101	11675	306.4	0
101	11675	306.5	0
101	11675	306.6	0
101	11675	306.7	0
101	11675	306.8	0
101	11675	306.9	0
101	11675	307	0
101	11675	307.1	0
101	11675	307.2	0
101	11675	307.3	0
101	11675	307.4	0
101	11675	307.5	0
101	11675	307.6	0
101	11675	307.7	0
101	11675	307.8	0
101	11675	307.9	0
101	11675	308	0
101	11675	308.1	0
101	11675	308.2	0
101	11675	308.3	0
101	12209	308.4	8000
101	12209	308.5	0
101	12209	308.6	0
101	12209	308.7	0
101	12209	308.8	0
101	12209	308.9	0
101	12209	309	0
101	12209	309.1	0
101	12209	309.2	0
101	12209	309.3	0
101	12209	309.4	0
101	12209	309.5	0
101	12209	309.6	0
101	12209	309.7	0
101	12209	309.8	0
101	12209	309.9	0
101	12209	310	0
101	12209	310.1	0
101	12209	310.2	0
101	12209	310.3	0
101	12209	310.4	0
101	12209	310.5	0
101	12209	310.6	0
101	12209	310.7	0
101	12209	310.8	0
101	12209	310.9	0
101	12209	311	0
101	12209	311.1	0
101	12209	311.2	0
101	12209	311.3	0
101	12209	311.4	0
101	12209	311.5	0
101	12209	311.6	0
101	12209	311.7	0
101	12209	311.8	0
101	12209	311.9	0
101	12209	312	0
101	12209	312.1	0
101	12209	312.2	0
101	12209	312.3	0
101	12209	312.4	0
101	12209	312.5	0
101	12209	312.6	0
101	12209	312.7	0
101	12209	312.8	0
101	12209	312.9	0
101	12209	313	0
101	12209	313.1	0
101	12209	313.2	0
101	12209	313.3	0
101	12209	313.4	0
101	12209	313.5	0
101	12209	313.6	0
101	12209	313.7	0
101	12209	313.8	0
101	12209	313.9	0
101	12209	314	0
101	12209	314.1	0
101	12209	314.2	0
101	12209	314.3	0
101	12209	314.4	0
101	12209	314.5	0
101	12209	314.6	0
101	12209	314.7	0
101	12209	314.8	0
101	12209	314.9	0
101	12209	315	0
101	12209	315.1	0
101	12209	315.2	0
101	12209	315.3	0
101	12209	315.4	0
101	12209	315.5	0
101	12209	315.6	0
101	12209	315.7	0
101	12209	315.8	0
101	12209	315.9	0
101	12209	316	0
101	12209	316.1	0
101	12209	316.2	0
101	12209	316.3	0
101	12209	316.4	0
101	12209	316.5	0
101	12209	316.6	0
101	12209	316.7	0
101	12209	316.8	0
101	12209	316.9	0
101	12209	317	0
101	12209	317.1	0
101	12209	317.2	0
101	12209	317.3	0
101	12209	317.4	0
101	12209	317.5	0
101	12209	317.6	0
101	12209	317.7	0
101	12209	317.8	0
101	12209	317.9	0
101	12209	318	0
101	12209	318.1	0
101	12209	318.2	0
101	12209	318.3	0
101	12209	318.4	0
101	12209	318.5	0
101	12209	318.6	0
101	12209	318.7	0
101	12209	318.8	0
101	12209	318.9	0
101	12209	319	0
101	12209	319.1	0
101	12209	319.2	0
101	12209	319.3	0
101	12209	319.4	0
101	12209	319.5	0
101	12209	319.6	0
101	12209	319.7	0
101	12209	319.8	0
101	12209	319.9	0
101	12209	320	0
101	12209	320.1	0
101	12209	320.2	0
101	12209	320.3	0
101	12209	320.4	0
101	12209	320.5	0
101	12453	320.6	8000
101	12453	320.7	0
101	12453	320.8	0
101	12453	320.9	0
101	12453	321	0
101	12453	321.1	0
101	12453	321.2	0
101	12453	321.3	0
101	12453	321.4	0
101	12453	321.5	0
101	12453	321.6	0
101	12453	321.7	0
101	12453	321.8	0
101	12453	321.9	0
101	12453	322	0
101	12453	322.1	0
101	12453	322.2	0
101	12453	322.3	0
101	12453	322.4	0
101	12453	322.5	0
101	12453	322.6	0
101	12453	322.7	0
101	12453	322.8	0
101	12453	322.9	0
101	12453	323	0
101	12453	323.1	0
101	12453	323.2	0
101	12453	323.3	0
101	12453	323.4	0
101	12453	323.5	0
101	12453	323.6	0
101	12453	323.7	0
101	12453	323.8	0
101	12453	323.9	0
101	12453	324	0
101	12453	324.1	0
101	12453	324.2	0
101	12453	324.3	0
101	12453	324.4	0
101	12453	324.5	0
101	12453	324.6	0
101	12453	324.7	0
101	12453	324.8	0
101	12453	324.9	0
[...]
123	136578	3499.1	0
123	136578	3499.2	0
123	136578	3499.3	0
123	136578	3499.4	0
123	136578	3499.5	0
123	136578	3499.6	0
123	136578	3499.7	0
123	136578	3499.8	0
123	136578	3499.9	0
123	136578	3500	0
123	136578	3500.1	0
123	136578	3500.2	0
123	136578	3500.3	0
123	136578	3500.4	0
123	136578	3500.5	0
123	136578	3500.6	0
123	136578	3500.7	0
123	136578	3500.8	0
123	136578	3500.9	0
123	136578	3501	0
123	136578	3501.1	0
123	136578	3501.2	0
123	136578	3501.3	0
123	136578	3501.4	0
123	136578	3501.5	0
123	136578	3501.6	0
123	136578	3501.7	0
123	136578	3501.8	0
123	136578	3501.9	0
123	136578	3502	0
123	136578	3502.1	0
123	136578	3502.2	0
123	136578	3502.3	0
123	136578	3502.4	0
123	136578	3502.5	0
123	136578	3502.6	0
123	136578	3502.7	0
123	136578	3502.8	0
123	136578	3502.9	0
123	136578	3503	0
123	136578	3503.1	0
123	136578	3503.2	0
123	136578	3503.3	0
123	136578	3503.4	0
123	136578	3503.5	0
123	136578	3503.6	0
123	136578	3503.7	0
123	136578	3503.8	0
123	136578	3503.9	0
123	136578	3504	0
123	136578	3504.1	0
123	136578	3504.2	0
123	136578	3504.3	0
123	136578	3504.4	0
123	136578	3504.5	0
123	136578	3504.6	0
123	136578	3504.7	0
123	136578	3504.8	0
123	136578	3504.9	0
123	136578	3505	0
123	136578	3505.1	0
123	136578	3505.2	0
123	136578	3505.3	0
123	136578	3505.4	0
123	136578	3505.5	0
123	136578	3505.6	0
123	136578	3505.7	0
123	136578	3505.8	0
123	136578	3505.9	0
123	136578	3506	0
123	136578	3506.1	0
123	136578	3506.2	0
123	136578	3506.3	0
123	136578	3506.4	0
123	136578	3506.5	0
123	136578	3506.6	0
123	136578	3506.7	0
123	136578	3506.8	0
123	136578	3506.9	0
123	136578	3507	0
123	136578	3507.1	0
123	136578	3507.2	0
123	136578	3507.3	0
123	136578	3507.4	0
123	136578	3507.5	0
123	136578	3507.6	0
123	136578	3507.7	0
123	136578	3507.8	0
123	136578	3507.9	0
123	136578	3508	0
123	136578	3508.1	0
123	136578	3508.2	0
123	136578	3508.3	0
123	136578	3508.4	0
123	136578	3508.5	0
123	136578	3508.6	0
123	136578	3508.7	0
123	136578	3508.8	0
123	136578	3508.9	0
123	136578	3509	0
123	136578	3509.1	0
123	136578	3509.2	0
123	136578	3509.3	0
123	136578	3509.4	0
123	136578	3509.5	0
123	136578	3509.6	0
123	136578	3509.7	0
123	136578	3509.8	0
123	136578	3509.9	0
123	136578	3510	0
123	136578	3510.1	0
123	136578	3510.2	0
123	136578	3510.3	0
123	136578	3510.4	0
123	136578	3510.5	0
123	136578	3510.6	0
123	136578	3510.7	0
123	136578	3510.8	0
123	136578	3510.9	0
123	136578	3511	0
123	136578	3511.1	0
123	136578	3511.2	0
123	136578	3511.3	0
123	136578	3511.4	0
123	136578	3511.5	0
123	136578	3511.6	0
123	136578	3511.7	0
123	136578	3511.8	0
123	136578	3511.9	0
123	136578	3512	0
123	136578	3512.1	0
123	136578	3512.2	0
123	136578	3512.3	0
123	136578	3512.4	0
123	136578	3512.5	0
123	136578	3512.6	0
123	136578	3512.7	0
123	136578	3512.8	0
123	136578	3512.9	0
123	136578	3513	0
123	136578	3513.1	0
123	136578	3513.2	0
123	136578	3513.3	0
123	136578	3513.4	0
123	136578	3513.5	0
123	136578	3513.6	0
123	136578	3513.7	0
123	136578	3513.8	0
123	136578	3513.9	0
123	136578	3514	0
123	136578	3514.1	0
123	136578	3514.2	0
123	136578	3514.3	0
123	136578	3514.4	0
123	136578	3514.5	0
123	136578	3514.6	0
123	136578	3514.7	0
123	136578	3514.8	0
123	136578	3514.9	0
123	136578	3515	0
123	136578	3515.1	0
123	136578	3515.2	0
123	136578	3515.3	0
123	136578	3515.4	0
123	136578	3515.5	0
123	136578	3515.6	0
123	136578	3515.7	0
123	136578	3515.8	0
123	136578	3515.9	0
123	136578	3516	0
123	136578	3516.1	0
123	136578	3516.2	0
123	136578	3516.3	0
123	136578	3516.4	0
123	136578	3516.5	0
123	136578	3516.6	0
123	136578	3516.7	0
123	136578	3516.8	0
123	136578	3516.9	0
123	136578	3517	0
123	136578	3517.1	0
123	136578	3517.2	0
123	136578	3517.3	0
123	136578	3517.4	0
123	136578	3517.5	0
123	136578	3517.6	0
123	136578	3517.7	0
123	136578	3517.8	0
123	136578	3517.9	0
123	136578	3518	0
123	136578	3518.1	0
123	136578	3518.2	0
123	136578	3518.3	0
123	136578	3518.4	0
123	136578	3518.5	0
123	136578	3518.6	0
123	136578	3518.7	0
123	136578	3518.8	0
123	136578	3518.9	0
123	136578	3519	0
123	136578	3519.1	0
123	136578	3519.2	0
123	136578	3519.3	0
123	136578	3519.4	0
123	136578	3519.5	0
123	136578	3519.6	0
123	136578	3519.7	0
123	136578	3519.8	0
123	136578	3519.9	0
123	136578	3520	0
123	136578	3520.1	0
123	136578	3520.2	0
123	136578	3520.3	0
123	136578	3520.4	0
123	136578	3520.5	0
123	136578	3520.6	0
123	136578	3520.7	0
123	136578	3520.8	0
123	136578	3520.9	0
123	136578	3521	0
123	136578	3521.1	0
123	136578	3521.2	0
123	136578	3521.3	0
123	136578	3521.4	0
123	136578	3521.5	0
123	136578	3521.6	0
123	136578	3521.7	0
123	136578	3521.8	0
123	136578	3521.9	0
123	136578	3522	0
123	136578	3522.1	0
123	136578	3522.2	0
123	136578	3522.3	0
123	136578	3522.4	0
123	136578	3522.5	0
123	136578	3522.6	0
123	136578	3522.7	0
123	136578	3522.8	0
123	136578	3522.9	0
123	136578	3523	0
123	136578	3523.1	0
123	136578	3523.2	0
123	136578	3523.3	0
123	136578	3523.4	0
123	136578	3523.5	0
123	136578	3523.6	0
123	136578	3523.7	0
123	136578	3523.8	0
123	136578	3523.9	0
123	136578	3524	0
123	136578	3524.1	0
123	136578	3524.2	0
123	136578	3524.3	0
123	136578	3524.4	0
123	136578	3524.5	0
123	136578	3524.6	0
123	136578	3524.7	0
123	136578	3524.8	0
123	136578	3524.9	0
123	136578	3525	0
123	136578	3525.1	0
123	136578	3525.2	0
123	136578	3525.3	0
123	136578	3525.4	0
123	136578	3525.5	0
123	136578	3525.6	0
123	136578	3525.7	0
123	136578	3525.8	0
123	136578	3525.9	0
123	136578	3526	0
123	136578	3526.1	0
123	136578	3526.2	0
123	136578	3526.3	0
123	136578	3526.4	0
123	136578	3526.5	0
123	136578	3526.6	0
123	136578	3526.7	0
123	136578	3526.8	0
123	136578	3526.9	0
123	136578	3527	0
123	136578	3527.1	0
123	136578	3527.2	0
123	136578	3527.3	0
123	136578	3527.4	0
123	136578	3527.5	0
123	136578	3527.6	0
123	136578	3527.7	0
123	136578	3527.8	0
123	136578	3527.9	0
123	136578	3528	0
123	136578	3528.1	0
123	136578	3528.2	0
123	136578	3528.3	0
123	136578	3528.4	0
123	136578	3528.5	0
123	136578	3528.6	0
123	136578	3528.7	0
123	136578	3528.8	0
123	136578	3528.9	0
123	136578	3529	0
123	136578	3529.1	0
123	136578	3529.2	0
123	136578	3529.3	0
123	136578	3529.4	0
123	136578	3529.5	0
123	136578	3529.6	0
123	136578	3529.7	0
123	136578	3529.8	0
123	136578	3529.9	0
123	136578	3530	0
123	136578	3530.1	0
123	136578	3530.2	0
123	136578	3530.3	0
123	136578	3530.4	0
123	136578	3530.5	0
123	136578	3530.6	0
123	136578	3530.7	0
123	136578	3530.8	0
123	136578	3530.9	0
123	136578	3531	0
123	136578	3531.1	0
123	136578	3531.2	0
123	136578	3531.3	0
123	136578	3531.4	0
123	136578	3531.5	0
123	136578	3531.6	0
123	136578	3531.7	0
123	136578	3531.8	0
123	136578	3531.9	0
123	136578	3532	0
123	136578	3532.1	0
123	136578	3532.2	0
123	136578	3532.3	0
123	136578	3532.4	0
123	136578	3532.5	0
123	136578	3532.6	0
123	136578	3532.7	0
123	136578	3532.8	0
123	136578	3532.9	0
123	136578	3533	0
123	136578	3533.1	0
123	136578	3533.2	0
123	136578	3533.3	0
123	136578	3533.4	0
123	136578	3533.5	0
123	136578	3533.6	0
123	136578	3533.7	0
123	136578	3533.8	0
123	136578	3533.9	0
123	136578	3534	0
123	136578	3534.1	0
123	136578	3534.2	0
123	136578	3534.3	0
123	136578	3534.4	0
123	136578	3534.5	0
123	136578	3534.6	0
123	136578	3534.7	0
123	136578	3534.8	0
123	136578	3534.9	0
123	136578	3535	0
123	136578	3535.1	0
123	136578	3535.2	0
123	136578	3535.3	0
123	136578	3535.4	0
123	136578	3535.5	0
123	136578	3535.6	0
123	136578	3535.7	0
123	136578	3535.8	0
123	136578	3535.9	0
123	136578	3536	0
123	136578	3536.1	0
123	136578	3536.2	0
123	136578	3536.3	0
123	136578	3536.4	0
123	136578	3536.5	0
123	136578	3536.6	0
123	136578	3536.7	0
123	136578	3536.8	0
123	136578	3536.9	0
123	136578	3537	0
123	136578	3537.1	0
123	136578	3537.2	0
123	136578	3537.3	0
123	136578	3537.4	0
123	136578	3537.5	0
123	136578	3537.6	0
123	136578	3537.7	0
123	136578	3537.8	0
123	136578	3537.9	0
123	136578	3538	0
123	136578	3538.1	0
123	136578	3538.2	0
123	136578	3538.3	0
123	136578	3538.4	0
123	136578	3538.5	0
123	136578	3538.6	0
123	136578	3538.7	0
123	136578	3538.8	0
123	136578	3538.9	0
123	136578	3539	0
123	136578	3539.1	0
123	136578	3539.2	0
123	136578	3539.3	0
123	136578	3539.4	0
123	136578	3539.5	0
123	136578	3539.6	0
123	136578	3539.7	0
123	136578	3539.8	0
123	136578	3539.9	0
123	136578	3540	0
123	136578	3540.1	0
123	136578	3540.2	0
123	136578	3540.3	0
123	136578	3540.4	0
123	136578	3540.5	0
123	136578	3540.6	0
123	136578	3540.7	0
123	136578	3540.8	0
123	136578	3540.9	0
123	136578	3541	0
123	136578	3541.1	0
123	136578	3541.2	0
123	136578	3541.3	0
123	136578	3541.4	0
123	136578	3541.5	0
123	136578	3541.6	0
123	136578	3541.7	0
123	136578	3541.8	0
123	136578	3541.9	0
123	136578	3542	0
123	136578	3542.1	0
123	136578	3542.2	0
123	136578	3542.3	0
123	136578	3542.4	0
123	136578	3542.5	0
123	136578	3542.6	0
123	136578	3542.7	0
123	136578	3542.8	0
123	136578	3542.9	0
123	136578	3543	0
123	136578	3543.1	0
123	136578	3543.2	0
123	136578	3543.3	0
123	136578	3543.4	0
123	136578	3543.5	0
123	136578	3543.6	0
123	136578	3543.7	0
123	136578	3543.8	0
123	136578	3543.9	0
123	136578	3544	0
123	136578	3544.1	0
123	136578	3544.2	0
123	136578	3544.3	0
123	136578	3544.4	0
123	136578	3544.5	0
123	136578	3544.6	0
123	136578	3544.7	0
123	136578	3544.8	0
123	136578	3544.9	0
123	136578	3545	0
123	136578	3545.1	0
123	136578	3545.2	0
123	136578	3545.3	0
123	136578	3545.4	0
123	136578	3545.5	0
123	136578	3545.6	0
123	136578	3545.7	0
123	136578	3545.8	0
123	136578	3545.9	0
123	136578	3546	0
123	136578	3546.1	0
123	136578	3546.2	0
123	136578	3546.3	0
123	136578	3546.4	0
123	136578	3546.5	0
123	136578	3546.6	0
123	136578	3546.7	0
123	136578	3546.8	0
123	136578	3546.9	0
123	136578	3547	0
123	136578	3547.1	0
123	136578	3547.2	0
123	136578	3547.3	0
123	136578	3547.4	0
123	136578	3547.5	0
123	136578	3547.6	0
123	136578	3547.7	0
123	136578	3547.8	0
123	136578	3547.9	0
123	136578	3548	0
123	136578	3548.1	0
123	136578	3548.2	0
123	136578	3548.3	0
123	136578	3548.4	0
123	136578	3548.5	0
123	136578	3548.6	0
123	136578	3548.7	0
123	136578	3548.8	0
123	136578	3548.9	0
123	136578	3549	0
123	136578	3549.1	0
123	136578	3549.2	0
123	136578	3549.3	0
123	136578	3549.4	0
123	136578	3549.5	0
123	136578	3549.6	0
123	136578	3549.7	0
123	136578	3549.8	0
123	136578	3549.9	0
123	136578	3550	0
123	136578	3550.1	0
123	136578	3550.2	0
123	136578	3550.3	0
123	136578	3550.4	0
123	136578	3550.5	0
123	136578	3550.6	0
123	136578	3550.7	0
123	136578	3550.8	0
123	136578	3550.9	0
123	136578	3551	0
123	136578	3551.1	0
123	136578	3551.2	0
123	136578	3551.3	0
123	136578	3551.4	0
123	136578	3551.5	0
123	136578	3551.6	0
123	136578	3551.7	0
123	136578	3551.8	0
123	136578	3551.9	0
123	136578	3552	0
123	136578	3552.1	0
123	136578	3552.2	0
123	136578	3552.3	0
123	136578	3552.4	0
123	136578	3552.5	0
123	136578	3552.6	0
123	136578	3552.7	0
123	136578	3552.8	0
123	136578	3552.9	0
123	136578	3553	0
123	136578	3553.1	0
123	136578	3553.2	0
123	136578	3553.3	0
123	136578	3553.4	0
123	136578	3553.5	0
123	136578	3553.6	0
123	136578	3553.7	0
123	136578	3553.8	0
123	136578	3553.9	0
123	136578	3554	0
123	136578	3554.1	0
123	136578	3554.2	0
123	136578	3554.3	0
123	136578	3554.4	0
123	136578	3554.5	0
123	136578	3554.6	0
123	136578	3554.7	0
123	136578	3554.8	0
123	136578	3554.9	0
123	136578	3555	0
123	136578	3555.1	0
123	136578	3555.2	0
123	136578	3555.3	0
123	136578	3555.4	0
123	136578	3555.5	0
123	136578	3555.6	0
123	136578	3555.7	0
123	136578	3555.8	0
123	136578	3555.9	0
123	136578	3556	0
123	136578	3556.1	0
123	136578	3556.2	0
123	136578	3556.3	0
123	136578	3556.4	0
123	136578	3556.5	0
123	136578	3556.6	0
123	136578	3556.7	0
123	136578	3556.8	0
123	136578	3556.9	0
123	136578	3557	0
123	136578	3557.1	0
123	136578	3557.2	0
123	136578	3557.3	0
123	136578	3557.4	0
123	136578	3557.5	0
123	136578	3557.6	0
123	136578	3557.7	0
123	136578	3557.8	0
123	136578	3557.9	0
123	136578	3558	0
123	136578	3558.1	0
123	136578	3558.2	0
123	136578	3558.3	0
123	136578	3558.4	0
123	136578	3558.5	0
123	136578	3558.6	0
123	136578	3558.7	0
123	136578	3558.8	0
123	136578	3558.9	0
123	136578	3559	0
123	136578	3559.1	0
123	136578	3559.2	0
123	136578	3559.3	0
123	136578	3559.4	0
123	136578	3559.5	0
123	136578	3559.6	0
123	136578	3559.7	0
123	136578	3559.8	0
123	136578	3559.9	0
123	136578	3560	0
123	136578	3560.1	0
123	136578	3560.2	0
123	136578	3560.3	0
123	136578	3560.4	0
123	136578	3560.5	0
123	136578	3560.6	0
123	136578	3560.7	0
123	136578	3560.8	0
123	136578	3560.9	0
123	136578	3561	0
123	136578	3561.1	0
123	136578	3561.2	0
123	136578	3561.3	0
123	136578	3561.4	0
123	136578	3561.5	0
123	136578	3561.6	0
123	136578	3561.7	0
123	136578	3561.8	0
123	136578	3561.9	0
123	136578	3562	0
123	136578	3562.1	0
123	136578	3562.2	0
123	136578	3562.3	0
123	136578	3562.4	0
123	136578	3562.5	0
123	136578	3562.6	0
123	136578	3562.7	0
123	136578	3562.8	0
123	136578	3562.9	0
123	136578	3563	0
123	136578	3563.1	0
123	136578	3563.2	0
123	136578	3563.3	0
123	136578	3563.4	0
123	136578	3563.5	0
123	136578	3563.6	0
123	136578	3563.7	0
123	136578	3563.8	0
123	136578	3563.9	0
123	136578	3564	0
123	136578	3564.1	0
123	136578	3564.2	0
123	136578	3564.3	0
123	136578	3564.4	0
123	136578	3564.5	0
123	136578	3564.6	0
123	136578	3564.7	0
123	136578	3564.8	0
123	136578	3564.9	0
123	136578	3565	0
123	136578	3565.1	0
123	136578	3565.2	0
123	136578	3565.3	0
123	136578	3565.4	0
123	136578	3565.5	0
123	136578	3565.6	0
123	136578	3565.7	0
123	136578	3565.8	0
123	136578	3565.9	0
123	136578	3566	0
123	136578	3566.1	0
123	136578	3566.2	0
123	136578	3566.3	0
123	136578	3566.4	0
123	136578	3566.5	0
123	136578	3566.6	0
123	136578	3566.7	0
123	136578	3566.8	0
123	136578	3566.9	0
123	136578	3567	0
123	136578	3567.1	0
123	136578	3567.2	0
123	136578	3567.3	0
123	136578	3567.4	0
123	136578	3567.5	0
123	136578	3567.6	0
123	136578	3567.7	0
123	136578	3567.8	0
123	136578	3567.9	0
123	136578	3568	0
123	136578	3568.1	0
123	136578	3568.2	0
123	136578	3568.3	0
123	136578	3568.4	0
123	136578	3568.5	0
123	136578	3568.6	0
123	136578	3568.7	0
123	136578	3568.8	0
123	136578	3568.9	0
123	136578	3569	0
123	136578	3569.1	0
123	136578	3569.2	0
123	136578	3569.3	0
123	136578	3569.4	0
123	136578	3569.5	0
123	136578	3569.6	0
123	136578	3569.7	0
123	136578	3569.8	0
123	136578	3569.9	0
123	136578	3570	0
123	136578	3570.1	0
123	136578	3570.2	0
123	136578	3570.3	0
123	136578	3570.4	0
123	136578	3570.5	0
123	136578	3570.6	0
123	136578	3570.7	0
123	136578	3570.8	0
123	136578	3570.9	0
123	136578	3571	0
123	136578	3571.1	0
123	136578	3571.2	0
123	136578	3571.3	0
123	136578	3571.4	0
123	136578	3571.5	0
123	136578	3571.6	0
123	136578	3571.7	0
123	136578	3571.8	0
123	136578	3571.9	0
123	136578	3572	0
123	136578	3572.1	0
123	136578	3572.2	0
123	136578	3572.3	0
123	136578	3572.4	0
123	136578	3572.5	0
123	136578	3572.6	0
123	136578	3572.7	0
123	136578	3572.8	0
123	136578	3572.9	0
123	136578	3573	0
123	136578	3573.1	0
123	136578	3573.2	0
123	136578	3573.3	0
123	136578	3573.4	0
123	136578	3573.5	0
123	136578	3573.6	0
123	136578	3573.7	0
123	136578	3573.8	0
123	136578	3573.9	0
123	136578	3574	0
123	136578	3574.1	0
123	136578	3574.2	0
123	136578	3574.3	0
123	136578	3574.4	0
123	136578	3574.5	0
123	136578	3574.6	0
123	136578	3574.7	0
123	136578	3574.8	0
123	136578	3574.9	0
123	136578	3575	0
123	136578	3575.1	0
123	136578	3575.2	0
123	136578	3575.3	0
123	136578	3575.4	0
123	136578	3575.5	0
123	136578	3575.6	0
123	136578	3575.7	0
123	136578	3575.8	0
123	136578	3575.9	0
123	136578	3576	0
123	136578	3576.1	0
123	136578	3576.2	0
123	136578	3576.3	0
123	136578	3576.4	0
123	136578	3576.5	0
123	136578	3576.6	0
123	136578	3576.7	0
123	136578	3576.8	0
123	136578	3576.9	0
123	136578	3577	0
123	136578	3577.1	0
123	136578	3577.2	0
123	136578	3577.3	0
123	136578	3577.4	0
123	136578	3577.5	0
123	136578	3577.6	0
123	136578	3577.7	0
123	136578	3577.8	0
123	136578	3577.9	0
123	136578	3578	0
123	136578	3578.1	0
123	136578	3578.2	0
123	136578	3578.3	0
123	136578	3578.4	0
123	136578	3578.5	0
123	136578	3578.6	0
123	136578	3578.7	0
123	136578	3578.8	0
123	136578	3578.9	0
123	136578	3579	0
123	136578	3579.1	0
123	136578	3579.2	0
123	136578	3579.3	0
123	136578	3579.4	0
123	136578	3579.5	0
123	136578	3579.6	0
123	136578	3579.7	0
123	136578	3579.8	0
123	136578	3579.9	0
123	136578	3580	0
123	136578	3580.1	0
123	136578	3580.2	0
123	136578	3580.3	0
123	136578	3580.4	0
123	136578	3580.5	0
123	136578	3580.6	0
123	136578	3580.7	0
123	136578	3580.8	0
123	136578	3580.9	0
123	136578	3581	0
123	136578	3581.1	0
123	136578	3581.2	0
123	136578	3581.3	0
123	136578	3581.4	0
123	136578	3581.5	0
123	136578	3581.6	0
123	136578	3581.7	0
123	136578	3581.8	0
123	136578	3581.9	0
123	136578	3582	0
123	136578	3582.1	0
123	136578	3582.2	0
123	136578	3582.3	0
123	136578	3582.4	0
123	136578	3582.5	0
123	136578	3582.6	0
123	136578	3582.7	0
123	136578	3582.8	0
123	136578	3582.9	0
123	136578	3583	0
123	136578	3583.1	0
123	136578	3583.2	0
123	136578	3583.3	0
123	136578	3583.4	0
123	136578	3583.5	0
123	136578	3583.6	0
123	136578	3583.7	0
123	136578	3583.8	0
123	136578	3583.9	0
123	136578	3584	0
123	136578	3584.1	0
123	136578	3584.2	0
123	136578	3584.3	0
123	136578	3584.4	0
123	136578	3584.5	0
123	136578	3584.6	0
123	136578	3584.7	0
123	136578	3584.8	0
123	136578	3584.9	0
123	136578	3585	0
123	136578	3585.1	0
123	136578	3585.2	0
123	136578	3585.3	0
123	136578	3585.4	0
123	136578	3585.5	0
123	136578	3585.6	0
123	136578	3585.7	0
123	136578	3585.8	0
123	136578	3585.9	0
123	136578	3586	0
123	136578	3586.1	0
123	136578	3586.2	0
123	136578	3586.3	0
123	136578	3586.4	0
123	136578	3586.5	0
123	136578	3586.6	0
123	136578	3586.7	0
123	136578	3586.8	0
123	136578	3586.9	0
123	136578	3587	0
123	136578	3587.1	0
123	136578	3587.2	0
123	136578	3587.3	0
123	136578	3587.4	0
123	136578	3587.5	0
123	136578	3587.6	0
123	136578	3587.7	0
123	136578	3587.8	0
123	136578	3587.9	0
123	136578	3588	0
123	136578	3588.1	0
123	136578	3588.2	0
123	136578	3588.3	0
123	136578	3588.4	0
123	136578	3588.5	0
123	136578	3588.6	0
123	136578	3588.7	0
123	136578	3588.8	0
123	136578	3588.9	0
123	136578	3589	0
123	136578	3589.1	0
123	136578	3589.2	0
123	136578	3589.3	0
123	136578	3589.4	0
123	136578	3589.5	0
123	136578	3589.6	0
123	136578	3589.7	0
123	136578	3589.8	0
123	136578	3589.9	0
123	136578	3590	0
123	136578	3590.1	0
123	136578	3590.2	0
123	136578	3590.3	0
123	136578	3590.4	0
123	136578	3590.5	0
123	136578	3590.6	0
123	136578	3590.7	0
123	136578	3590.8	0
123	136578	3590.9	0
123	136578	3591	0
123	136578	3591.1	0
123	136578	3591.2	0
123	136578	3591.3	0
123	136578	3591.4	0
123	136578	3591.5	0
123	136578	3591.6	0
123	136578	3591.7	0
123	136578	3591.8	0
123	136578	3591.9	0
123	136578	3592	0
123	136578	3592.1	0
123	136578	3592.2	0
123	136578	3592.3	0
123	136578	3592.4	0
123	136578	3592.5	0
123	136578	3592.6	0
123	136578	3592.7	0
123	136578	3592.8	0
123	136578	3592.9	0
123	136578	3593	0
123	136578	3593.1	0
123	136578	3593.2	0
123	136578	3593.3	0
123	136578	3593.4	0
123	136578	3593.5	0
123	136578	3593.6	0
123	136578	3593.7	0
123	136578	3593.8	0
123	136578	3593.9	0
123	136578	3594	0
123	136578	3594.1	0
123	136578	3594.2	0
123	136578	3594.3	0
123	136578	3594.4	0
123	136578	3594.5	0
123	136578	3594.6	0
123	136578	3594.7	0
123	136578	3594.8	0
123	136578	3594.9	0
123	136578	3595	0
123	136578	3595.1	0
123	136578	3595.2	0
123	136578	3595.3	0
123	136578	3595.4	0
123	136578	3595.5	0
123	136578	3595.6	0
123	136578	3595.7	0
123	136578	3595.8	0
123	136578	3595.9	0
123	136578	3596	0
123	136578	3596.1	0
123	136578	3596.2	0
123	136578	3596.3	0
123	136578	3596.4	0
123	136578	3596.5	0
123	136578	3596.6	0
123	136578	3596.7	0
123	136578	3596.8	0
123	136578	3596.9	0
123	136578	3597	0
123	136578	3597.1	0
123	136578	3597.2	0
123	136578	3597.3	0
123	136578	3597.4	0
123	136578	3597.5	0
123	136578	3597.6	0
123	136578	3597.7	0
123	136578	3597.8	0
123	136578	3597.9	0
123	136578	3598	0
123	136578	3598.1	0
123	136578	3598.2	0
123	136578	3598.3	0
123	136578	3598.4	0
123	136578	3598.5	0
123	136578	3598.6	0
123	136578	3598.7	0
123	136578	3598.8	0
123	136578	3598.9	0
123	136578	3599	0
123	136578	3599.1	0
123	136578	3599.2	0
123	136578	3599.3	0
123	136578	3599.4	0
123	136578	3599.5	0
123	136578	3599.6	0
123	136578	3599.7	0
123	136578	3599.8	0
123	136578	3599.9	0
123	136578	3600	0

