version 2
run General-3-20221116-16:24:43-44208
attr configname General
attr datetime 20221116-16:24:43
attr experiment General
attr inifile omnetpp.ini
attr iterationvars ""
attr iterationvarsf ""
attr measurement ""
attr network Scenario
attr processid 44208
attr repetition 3
attr replication #3
attr resultdir results
attr runnumber 3
attr seedset 3
param *.hosts 3
param **.constraintAreaMinX 0m
param **.constraintAreaMinY 0m
param **.constraintAreaMinZ 0m
param **.constraintAreaMaxX 600m
param **.constraintAreaMaxY 400m
param **.constraintAreaMaxZ 0m
param **.host*.ipv4.configurator.typename "\"HostAutoConfigurator\""
param **.host*.ipv4.configurator.interfaces "\"wlan0\""
param **.host*.mobility.typename "\"MassMobility\""
param **.host*.mobility.initFromDisplayString false
param **.host*.mobility.changeInterval "truncnormal(2s, 0.5s)"
param **.host*.mobility.angleDelta "normal(0deg, 30deg)"
param **.host*.mobility.speed "truncnormal(20mps, 8mps)"
param **.host*.mobility.updateInterval 100ms
param **.host*.numApps 1
param **.app[0].typename "\"UdpBasicApp\""
param **.app[0].destAddresses "\"host[0]\""
param **.app[0].localPort 9001
param **.app[0].destPort 9001
param **.app[0].messageLength 100B
param **.app[0].startTime "uniform(10s, 30s)"
param **.app[0].sendInterval "uniform(10s, 30s)"
param **.wlan[*].bitrate 2Mbps
param **.wlan[*].mac.dcf.channelAccess.cwMin 7
param **.wlan[*].radio.transmitter.power 2mW
param **.wlan[*].radio.receiver.sensitivity -85dBm
param **.wlan[*].radio.receiver.snirThreshold 4dB

vector 0 Scenario.host[0].wlan[0].radio radioMode:vector ETV
attr interpolationmode sample-hold
attr source radioModeChanged
attr title "Radio mode, vector"
vector 1 Scenario.host[0].wlan[0].radio radioChannel:vector ETV
attr interpolationmode sample-hold
attr source radioChannelChanged
attr title "Radio channel, vector"
vector 2 Scenario.host[1].wlan[0].radio radioMode:vector ETV
attr interpolationmode sample-hold
attr source radioModeChanged
attr title "Radio mode, vector"
vector 3 Scenario.host[1].wlan[0].radio radioChannel:vector ETV
attr interpolationmode sample-hold
attr source radioChannelChanged
attr title "Radio channel, vector"
vector 4 Scenario.host[2].wlan[0].radio radioMode:vector ETV
attr interpolationmode sample-hold
attr source radioModeChanged
attr title "Radio mode, vector"
vector 5 Scenario.host[2].wlan[0].radio radioChannel:vector ETV
attr interpolationmode sample-hold
attr source radioChannelChanged
attr title "Radio channel, vector"
vector 6 Scenario.host[0].wlan[0].radio receptionState:vector ETV
attr interpolationmode sample-hold
attr source receptionStateChanged
attr title "Radio reception state, vector"
vector 7 Scenario.host[1].wlan[0].radio receptionState:vector ETV
attr interpolationmode sample-hold
attr source receptionStateChanged
attr title "Radio reception state, vector"
vector 8 Scenario.host[2].wlan[0].radio receptionState:vector ETV
attr interpolationmode sample-hold
attr source receptionStateChanged
attr title "Radio reception state, vector"
vector 9 Scenario.host[0].wlan[0].mac.dcf.recoveryProcedure contentionWindowChanged:vector ETV
attr interpolationmode sample-hold
attr title "contention window, vector"
vector 10 Scenario.host[1].wlan[0].mac.dcf.recoveryProcedure contentionWindowChanged:vector ETV
attr interpolationmode sample-hold
attr title "contention window, vector"
vector 11 Scenario.host[2].wlan[0].mac.dcf.recoveryProcedure contentionWindowChanged:vector ETV
attr interpolationmode sample-hold
attr title "contention window, vector"
vector 12 Scenario.host[2].app[0] packetSent:vector(packetBytes) ETV
attr interpolationmode none
attr source packetSent
attr title "packets sent, vector(packetBytes)"
vector 13 Scenario.host[2].udp packetSent:vector(packetBytes) ETV
attr interpolationmode none
attr source packetSent
attr title "packets sent, vector(packetBytes)"
vector 14 Scenario.host[2].ipv4.arp arpRequestSent:vector(packetBytes) ETV
attr source arpRequestSent
attr title "ARP request sent, vector(packetBytes)"
vector 15 Scenario.host[2].wlan[0].mac packetReceivedFromUpper:vector(packetBytes) ETV
attr interpolationmode none
attr title "packets received from upper layer, vector(packetBytes)"
vector 16 Scenario.host[2].wlan[0].mac.dcf.channelAccess.pendingQueue packetPushed:vector(packetBytes) ETV
attr interpolationmode none
attr title "packet pushed, vector(packetBytes)"
vector 17 Scenario.host[2].wlan[0].mac.dcf.channelAccess.pendingQueue queueLength:vector ETV
attr interpolationmode sample-hold
attr source "count(packetPushed) - count(packetPopped) - count(packetRemoved) - count(packetDropped)"
attr title "queue length, vector"
vector 18 Scenario.host[2].wlan[0].mac.dcf.channelAccess.contention backoffPeriodGenerated:vector ETV
attr interpolationmode none
attr title "backoff periods, vector"
vector 19 Scenario.host[2].wlan[0].mac.dcf.channelAccess.contention backoffActive:vector ETV
attr interpolationmode sample-hold
attr source count(backoffStarted)-count(backoffStopped)
attr title "backoff active, vector"
vector 20 Scenario.host[2].wlan[0].mac.dcf.channelAccess.pendingQueue packetPopped:vector(packetBytes) ETV
attr interpolationmode none
attr title "packet popped, vector(packetBytes)"
vector 21 Scenario.host[2].wlan[0].mac.dcf.channelAccess.pendingQueue queueingTime:vector ETV
attr interpolationmode none
attr source queueingTime(packetPopped)
attr title "queueing times, vector"
attr unit s
vector 22 Scenario.host[2].wlan[0].mac.dcf.channelAccess.inProgressFrames queueLength:vector ETV
attr interpolationmode sample-hold
attr source "count(packetEnqueued) - count(packetDequeued)"
attr title "queue length, vector"
vector 23 Scenario.host[2].wlan[0].mac.dcf datarateSelected:vector ETV
attr interpolationmode none
attr title "datarates selected, vector"
vector 24 Scenario.host[2].wlan[0].mac packetSentToLower:vector(packetBytes) ETV
attr interpolationmode none
attr title "packets sent to lower layer, vector(packetBytes)"
vector 25 Scenario.host[2].wlan[0].mac.dcf frameSequenceActive:vector ETV
attr interpolationmode sample-hold
attr source count(frameSequenceStarted)-count(frameSequenceFinished)
attr title "frame sequence active, vector"
vector 26 Scenario.host[2].wlan[0].radio transmissionState:vector ETV
attr interpolationmode sample-hold
attr source transmissionStateChanged
attr title "Radio transmission state, vector"
vector 27 Scenario.host[2].wlan[0].mac.dcf packetSentToPeer:vector(packetBytes) ETV
attr interpolationmode none
attr title "packets sent, vector(packetBytes)"
vector 28 Scenario.host[2].wlan[0].mac.dcf packetSentToPeerMulticast:vector(packetBytes) ETV
attr interpolationmode none
attr source ieee80211Multicast(packetSentToPeer)
attr title "packets sent: multicast, vector(packetBytes)"
vector 29 Scenario.host[2].wlan[0].mac.dcf packetSentToPeerBroadcast:vector(packetBytes) ETV
attr interpolationmode none
attr source ieee80211Broadcast(packetSentToPeer)
attr title "packets sent: broadcast , vector(packetBytes)"
vector 30 Scenario.host[2].wlan[0].mac.dcf packetSentToPeerWithoutRetry:vector(packetBytes) ETV
attr interpolationmode none
attr source ieee80211NotRetry(packetSentToPeer)
attr title "packets sent: without retry, vector(packetBytes)"
vector 31 Scenario.host[2].wlan[0].mac.dcf.channelAccess.inProgressFrames queueingTime:vector ETV
attr interpolationmode none
attr source queueingTime(packetDequeued)
attr title "queueing times, vector"
vector 32 Scenario.host[0].wlan[0].mac packetReceivedFromLower:vector(packetBytes) ETV
attr interpolationmode none
attr title "packets received from lower layer, vector(packetBytes)"
vector 33 Scenario.host[0].wlan[0].mac.dcf packetReceivedFromPeer:vector(packetBytes) ETV
attr interpolationmode none
attr title "packets received, vector(packetBytes)"
vector 34 Scenario.host[0].wlan[0].mac.dcf packetReceivedFromPeerMulticast:vector(packetBytes) ETV
attr interpolationmode none
attr source ieee80211Multicast(packetReceivedFromPeer)
attr title "packets received: multicast, vector(packetBytes)"
vector 35 Scenario.host[0].wlan[0].mac.dcf packetReceivedFromPeerBroadcast:vector(packetBytes) ETV
attr interpolationmode none
attr source ieee80211Broadcast(packetReceivedFromPeer)
attr title "packets received: broadcast, vector(packetBytes)"
vector 36 Scenario.host[0].wlan[0].mac.dcf packetReceivedFromPeerWithoutRetry:vector(packetBytes) ETV
attr interpolationmode none
attr source ieee80211NotRetry(packetReceivedFromPeer)
attr title "packets received: without retry, vector(packetBytes)"
vector 37 Scenario.host[0].wlan[0].mac packetSentToUpper:vector(packetBytes) ETV
attr interpolationmode none
attr title "packets sent to upper layer, vector(packetBytes)"
vector 38 Scenario.host[0].ipv4.arp arpReplySent:vector(packetBytes) ETV
attr source arpReplySent
attr title "ARP replies sent, vector(packetBytes)"
vector 39 Scenario.host[0].wlan[0].mac packetReceivedFromUpper:vector(packetBytes) ETV
attr interpolationmode none
attr title "packets received from upper layer, vector(packetBytes)"
vector 40 Scenario.host[0].wlan[0].mac.dcf.channelAccess.pendingQueue packetPushed:vector(packetBytes) ETV
attr interpolationmode none
attr title "packet pushed, vector(packetBytes)"
vector 41 Scenario.host[0].wlan[0].mac.dcf.channelAccess.pendingQueue queueLength:vector ETV
attr interpolationmode sample-hold
attr source "count(packetPushed) - count(packetPopped) - count(packetRemoved) - count(packetDropped)"
attr title "queue length, vector"
vector 42 Scenario.host[0].wlan[0].mac.dcf.channelAccess.contention backoffPeriodGenerated:vector ETV
attr interpolationmode none
attr title "backoff periods, vector"
vector 43 Scenario.host[0].wlan[0].mac.dcf.channelAccess.contention backoffActive:vector ETV
attr interpolationmode sample-hold
attr source count(backoffStarted)-count(backoffStopped)
attr title "backoff active, vector"
vector 44 Scenario.host[0].wlan[0].mac.dcf.channelAccess.pendingQueue packetPopped:vector(packetBytes) ETV
attr interpolationmode none
attr title "packet popped, vector(packetBytes)"
vector 45 Scenario.host[0].wlan[0].mac.dcf.channelAccess.pendingQueue queueingTime:vector ETV
attr interpolationmode none
attr source queueingTime(packetPopped)
attr title "queueing times, vector"
attr unit s
vector 46 Scenario.host[0].wlan[0].mac.dcf.channelAccess.inProgressFrames queueLength:vector ETV
attr interpolationmode sample-hold
attr source "count(packetEnqueued) - count(packetDequeued)"
attr title "queue length, vector"
vector 47 Scenario.host[0].wlan[0].mac.dcf datarateSelected:vector ETV
attr interpolationmode none
attr title "datarates selected, vector"
vector 48 Scenario.host[0].wlan[0].mac packetSentToLower:vector(packetBytes) ETV
attr interpolationmode none
attr title "packets sent to lower layer, vector(packetBytes)"
vector 49 Scenario.host[0].wlan[0].mac.dcf frameSequenceActive:vector ETV
attr interpolationmode sample-hold
attr source count(frameSequenceStarted)-count(frameSequenceFinished)
attr title "frame sequence active, vector"
vector 50 Scenario.host[0].wlan[0].radio transmissionState:vector ETV
attr interpolationmode sample-hold
attr source transmissionStateChanged
attr title "Radio transmission state, vector"
vector 51 Scenario.host[0].wlan[0].mac.dcf packetSentToPeer:vector(packetBytes) ETV
attr interpolationmode none
attr title "packets sent, vector(packetBytes)"
vector 52 Scenario.host[0].wlan[0].mac.dcf packetSentToPeerUnicast:vector(packetBytes) ETV
attr interpolationmode none
attr source ieee80211Unicast(packetSentToPeer)
attr title "packets sent: unicast, vector(packetBytes)"
vector 53 Scenario.host[0].wlan[0].mac.dcf packetSentToPeerWithoutRetry:vector(packetBytes) ETV
attr interpolationmode none
attr source ieee80211NotRetry(packetSentToPeer)
attr title "packets sent: without retry, vector(packetBytes)"
vector 54 Scenario.host[0].wlan[0].mac.rx nav:vector ETV
attr interpolationmode linear
attr source navChanged
attr title "network allocation vector, vector"
vector 55 Scenario.host[2].wlan[0].mac packetReceivedFromLower:vector(packetBytes) ETV
attr interpolationmode none
attr title "packets received from lower layer, vector(packetBytes)"
vector 56 Scenario.host[2].wlan[0].mac.dcf packetReceivedFromPeer:vector(packetBytes) ETV
attr interpolationmode none
attr title "packets received, vector(packetBytes)"
vector 57 Scenario.host[2].wlan[0].mac.dcf packetReceivedFromPeerUnicast:vector(packetBytes) ETV
attr interpolationmode none
attr source ieee80211Unicast(packetReceivedFromPeer)
attr title "packets received: unicast, vector(packetBytes)"
vector 58 Scenario.host[2].wlan[0].mac.dcf packetReceivedFromPeerWithoutRetry:vector(packetBytes) ETV
attr interpolationmode none
attr source ieee80211NotRetry(packetReceivedFromPeer)
attr title "packets received: without retry, vector(packetBytes)"
vector 59 Scenario.host[2].wlan[0].mac packetSentToUpper:vector(packetBytes) ETV
attr interpolationmode none
attr title "packets sent to upper layer, vector(packetBytes)"
vector 60 Scenario.host[2].wlan[0].mac.dcf packetSentToPeerUnicast:vector(packetBytes) ETV
attr interpolationmode none
attr source ieee80211Unicast(packetSentToPeer)
attr title "packets sent: unicast, vector(packetBytes)"
vector 61 Scenario.host[0].wlan[0].mac.dcf packetReceivedFromPeerUnicast:vector(packetBytes) ETV
attr interpolationmode none
attr source ieee80211Unicast(packetReceivedFromPeer)
attr title "packets received: unicast, vector(packetBytes)"
vector 62 Scenario.host[0].wlan[0].mac.dcf.channelAccess.inProgressFrames queueingTime:vector ETV
attr interpolationmode none
attr source queueingTime(packetDequeued)
attr title "queueing times, vector"
vector 63 Scenario.host[2].wlan[0].mac.rx nav:vector ETV
attr interpolationmode linear
attr source navChanged
attr title "network allocation vector, vector"
vector 64 Scenario.host[0].udp packetReceived:vector(packetBytes) ETV
attr interpolationmode none
attr source packetReceived
attr title "packets received, vector(packetBytes)"
vector 65 Scenario.host[0].udp droppedPkWrongPort:vector(count) ETV
attr interpolationmode none
attr source packetDropReasonIsNoPortFound(packetDropped)
attr title "packets dropped (wrong port), vector(count)"
vector 66 Scenario.host[0].app[0] packetSent:vector(packetBytes) ETV
attr interpolationmode none
attr source packetSent
attr title "packets sent, vector(packetBytes)"
vector 67 Scenario.host[0].udp packetSent:vector(packetBytes) ETV
attr interpolationmode none
attr source packetSent
attr title "packets sent, vector(packetBytes)"
vector 68 Scenario.host[0].lo[0].lo rcvdPkFromHl:vector(packetBytes) ETV
attr interpolationmode none
attr source packetReceivedFromUpper
attr title "packets received from higher layer, vector(packetBytes)"
vector 69 Scenario.host[0].lo[0].lo passedUpPk:vector(packetBytes) ETV
attr interpolationmode none
attr source packetSentToUpper
attr title "packets passed to higher layer, vector(packetBytes)"
vector 70 Scenario.host[0].udp passedUpPk:vector(count) ETV
attr interpolationmode none
attr source packetSentToUpper
attr title "packets passed up, vector(count)"
vector 71 Scenario.host[0].app[0] packetReceived:vector(packetBytes) ETV
attr interpolationmode none
attr source packetReceived
attr title "packets received, vector(packetBytes)"
vector 72 Scenario.host[0].app[0] throughput:vector ETV
attr source throughput(packetReceived)
attr title "throughput, vector"
attr unit bps
vector 73 Scenario.host[0].app[0] rcvdPkLifetime:vector ETV
attr interpolationmode none
attr source dataAge(packetReceived)
attr title "received packet lifetime, vector"
attr unit s
vector 74 Scenario.host[0].app[0] rcvdPkSeqNo:vector ETV
attr interpolationmode none
attr source appPkSeqNo(packetReceived)
attr title "received packet sequence number, vector"
vector 75 Scenario.host[1].app[0] packetSent:vector(packetBytes) ETV
attr interpolationmode none
attr source packetSent
attr title "packets sent, vector(packetBytes)"
vector 76 Scenario.host[1].udp packetSent:vector(packetBytes) ETV
attr interpolationmode none
attr source packetSent
attr title "packets sent, vector(packetBytes)"
vector 77 Scenario.host[1].ipv4.arp arpRequestSent:vector(packetBytes) ETV
attr source arpRequestSent
attr title "ARP request sent, vector(packetBytes)"
vector 78 Scenario.host[1].wlan[0].mac packetReceivedFromUpper:vector(packetBytes) ETV
attr interpolationmode none
attr title "packets received from upper layer, vector(packetBytes)"
vector 79 Scenario.host[1].wlan[0].mac.dcf.channelAccess.pendingQueue packetPushed:vector(packetBytes) ETV
attr interpolationmode none
attr title "packet pushed, vector(packetBytes)"
vector 80 Scenario.host[1].wlan[0].mac.dcf.channelAccess.pendingQueue queueLength:vector ETV
attr interpolationmode sample-hold
attr source "count(packetPushed) - count(packetPopped) - count(packetRemoved) - count(packetDropped)"
attr title "queue length, vector"
vector 81 Scenario.host[1].wlan[0].mac.dcf.channelAccess.contention backoffPeriodGenerated:vector ETV
attr interpolationmode none
attr title "backoff periods, vector"
vector 82 Scenario.host[1].wlan[0].mac.dcf.channelAccess.contention backoffActive:vector ETV
attr interpolationmode sample-hold
attr source count(backoffStarted)-count(backoffStopped)
attr title "backoff active, vector"
vector 83 Scenario.host[1].wlan[0].mac.dcf.channelAccess.pendingQueue packetPopped:vector(packetBytes) ETV
attr interpolationmode none
attr title "packet popped, vector(packetBytes)"
vector 84 Scenario.host[1].wlan[0].mac.dcf.channelAccess.pendingQueue queueingTime:vector ETV
attr interpolationmode none
attr source queueingTime(packetPopped)
attr title "queueing times, vector"
attr unit s
vector 85 Scenario.host[1].wlan[0].mac.dcf.channelAccess.inProgressFrames queueLength:vector ETV
attr interpolationmode sample-hold
attr source "count(packetEnqueued) - count(packetDequeued)"
attr title "queue length, vector"
vector 86 Scenario.host[1].wlan[0].mac.dcf datarateSelected:vector ETV
attr interpolationmode none
attr title "datarates selected, vector"
vector 87 Scenario.host[1].wlan[0].mac packetSentToLower:vector(packetBytes) ETV
attr interpolationmode none
attr title "packets sent to lower layer, vector(packetBytes)"
vector 88 Scenario.host[1].wlan[0].mac.dcf frameSequenceActive:vector ETV
attr interpolationmode sample-hold
attr source count(frameSequenceStarted)-count(frameSequenceFinished)
attr title "frame sequence active, vector"
vector 89 Scenario.host[1].wlan[0].radio transmissionState:vector ETV
attr interpolationmode sample-hold
attr source transmissionStateChanged
attr title "Radio transmission state, vector"
vector 90 Scenario.host[1].wlan[0].mac.dcf packetSentToPeer:vector(packetBytes) ETV
attr interpolationmode none
attr title "packets sent, vector(packetBytes)"
vector 91 Scenario.host[1].wlan[0].mac.dcf packetSentToPeerMulticast:vector(packetBytes) ETV
attr interpolationmode none
attr source ieee80211Multicast(packetSentToPeer)
attr title "packets sent: multicast, vector(packetBytes)"
vector 92 Scenario.host[1].wlan[0].mac.dcf packetSentToPeerBroadcast:vector(packetBytes) ETV
attr interpolationmode none
attr source ieee80211Broadcast(packetSentToPeer)
attr title "packets sent: broadcast , vector(packetBytes)"
vector 93 Scenario.host[1].wlan[0].mac.dcf packetSentToPeerWithoutRetry:vector(packetBytes) ETV
attr interpolationmode none
attr source ieee80211NotRetry(packetSentToPeer)
attr title "packets sent: without retry, vector(packetBytes)"
vector 94 Scenario.host[1].wlan[0].mac.dcf.channelAccess.inProgressFrames queueingTime:vector ETV
attr interpolationmode none
attr source queueingTime(packetDequeued)
attr title "queueing times, vector"
vector 95 Scenario.host[2].wlan[0].mac.dcf packetReceivedFromPeerMulticast:vector(packetBytes) ETV
attr interpolationmode none
attr source ieee80211Multicast(packetReceivedFromPeer)
attr title "packets received: multicast, vector(packetBytes)"
vector 96 Scenario.host[2].wlan[0].mac.dcf packetReceivedFromPeerBroadcast:vector(packetBytes) ETV
attr interpolationmode none
attr source ieee80211Broadcast(packetReceivedFromPeer)
attr title "packets received: broadcast, vector(packetBytes)"
vector 97 Scenario.host[1].ipv4.ip packetDropAddressResolutionFailed:vector(packetBytes) ETV
attr interpolationmode none
attr source packetDropReasonIsAddressResolutionFailed(packetDropped)
attr title "packet drop: address resolution failed, vector(packetBytes)"
vector 98 Scenario.host[1].wlan[0].mac packetReceivedFromLower:vector(packetBytes) ETV
attr interpolationmode none
attr title "packets received from lower layer, vector(packetBytes)"
vector 99 Scenario.host[1].wlan[0].mac.dcf packetReceivedFromPeer:vector(packetBytes) ETV
attr interpolationmode none
attr title "packets received, vector(packetBytes)"
vector 100 Scenario.host[1].wlan[0].mac.dcf packetReceivedFromPeerUnicast:vector(packetBytes) ETV
attr interpolationmode none
attr source ieee80211Unicast(packetReceivedFromPeer)
attr title "packets received: unicast, vector(packetBytes)"
vector 101 Scenario.host[1].wlan[0].mac.dcf packetReceivedFromPeerWithoutRetry:vector(packetBytes) ETV
attr interpolationmode none
attr source ieee80211NotRetry(packetReceivedFromPeer)
attr title "packets received: without retry, vector(packetBytes)"
vector 102 Scenario.host[1].wlan[0].mac packetSentToUpper:vector(packetBytes) ETV
attr interpolationmode none
attr title "packets sent to upper layer, vector(packetBytes)"
vector 103 Scenario.host[1].wlan[0].mac.dcf packetSentToPeerUnicast:vector(packetBytes) ETV
attr interpolationmode none
attr source ieee80211Unicast(packetSentToPeer)
attr title "packets sent: unicast, vector(packetBytes)"
vector 104 Scenario.host[1].wlan[0].mac.rx nav:vector ETV
attr interpolationmode linear
attr source navChanged
attr title "network allocation vector, vector"
vector 105 Scenario.host[1].wlan[0].mac.dcf packetDrop:vector(packetBytes) ETV
attr interpolationmode none
attr source packetDropped
attr title "packet drops, vector(packetBytes)"
vector 106 Scenario.host[1].wlan[0].mac.dcf packetDropNotAddressedToUs:vector(packetBytes) ETV
attr interpolationmode none
attr source packetDropReasonIsNotAddressedToUs(packetDropped)
attr title "packet drops: not addressed to us, vector(packetBytes)"
vector 107 Scenario.host[1].wlan[0].mac packetDrop:vector(packetBytes) ETV
attr interpolationmode none
attr source packetDropped
attr title "packet drops, vector(packetBytes)"
vector 108 Scenario.host[1].wlan[0].mac packetDropNotAddressedToUs:vector(packetBytes) ETV
attr interpolationmode none
attr source packetDropReasonIsNotAddressedToUs(packetDropped)
attr title "packet drops: not addressed to us, vector(packetBytes)"
vector 109 Scenario.host[2].wlan[0].mac.dcf packetDrop:vector(packetBytes) ETV
attr interpolationmode none
attr source packetDropped
attr title "packet drops, vector(packetBytes)"
vector 110 Scenario.host[2].wlan[0].mac.dcf packetDropNotAddressedToUs:vector(packetBytes) ETV
attr interpolationmode none
attr source packetDropReasonIsNotAddressedToUs(packetDropped)
attr title "packet drops: not addressed to us, vector(packetBytes)"
vector 111 Scenario.host[2].wlan[0].mac packetDrop:vector(packetBytes) ETV
attr interpolationmode none
attr source packetDropped
attr title "packet drops, vector(packetBytes)"
vector 112 Scenario.host[2].wlan[0].mac packetDropNotAddressedToUs:vector(packetBytes) ETV
attr interpolationmode none
attr source packetDropReasonIsNotAddressedToUs(packetDropped)
attr title "packet drops: not addressed to us, vector(packetBytes)"
vector 113 Scenario.host[2].wlan[0].mac.dcf packetSentToPeerWithRetry:vector(packetBytes) ETV
attr interpolationmode none
attr source ieee80211Retry(packetSentToPeer)
attr title "packets sent: with retry, vector(packetBytes)"
vector 114 Scenario.host[2].wlan[0].mac.dcf packetDropRetryLimitReached:vector(packetBytes) ETV
attr interpolationmode none
attr source packetDropReasonIsRetryLimitReached(packetDropped)
attr title "packet drops: retry limit reached, vector(packetBytes)"
vector 115 Scenario.host[2].wlan[0].mac packetDropRetryLimitReached:vector(packetBytes) ETV
attr interpolationmode none
attr source packetDropReasonIsRetryLimitReached(packetDropped)
attr title "packet drops: retry limit reached, vector(packetBytes)"
vector 116 Scenario.host[1].wlan[0].mac.dcf packetSentToPeerWithRetry:vector(packetBytes) ETV
attr interpolationmode none
attr source ieee80211Retry(packetSentToPeer)
attr title "packets sent: with retry, vector(packetBytes)"
vector 117 Scenario.host[1].wlan[0].mac.dcf packetDropRetryLimitReached:vector(packetBytes) ETV
attr interpolationmode none
attr source packetDropReasonIsRetryLimitReached(packetDropped)
attr title "packet drops: retry limit reached, vector(packetBytes)"
vector 118 Scenario.host[1].wlan[0].mac packetDropRetryLimitReached:vector(packetBytes) ETV
attr interpolationmode none
attr source packetDropReasonIsRetryLimitReached(packetDropped)
attr title "packet drops: retry limit reached, vector(packetBytes)"
vector 119 Scenario.host[1].wlan[0].mac.dcf packetReceivedFromPeerMulticast:vector(packetBytes) ETV
attr interpolationmode none
attr source ieee80211Multicast(packetReceivedFromPeer)
attr title "packets received: multicast, vector(packetBytes)"
vector 120 Scenario.host[1].wlan[0].mac.dcf packetReceivedFromPeerBroadcast:vector(packetBytes) ETV
attr interpolationmode none
attr source ieee80211Broadcast(packetReceivedFromPeer)
attr title "packets received: broadcast, vector(packetBytes)"
vector 121 Scenario.host[0].wlan[0].mac.dcf packetReceivedFromPeerWithRetry:vector(packetBytes) ETV
attr interpolationmode none
attr source ieee80211Retry(packetReceivedFromPeer)
attr title "packets received: with retry, vector(packetBytes)"
vector 122 Scenario.host[2].ipv4.ip packetDropAddressResolutionFailed:vector(packetBytes) ETV
attr interpolationmode none
attr source packetDropReasonIsAddressResolutionFailed(packetDropped)
attr title "packet drop: address resolution failed, vector(packetBytes)"
72	604	0.1	0
72	604	0.2	0
72	604	0.3	0
72	604	0.4	0
72	604	0.5	0
72	604	0.6	0
72	604	0.7	0
72	604	0.8	0
72	604	0.9	0
72	604	1	0
72	604	1.1	0
72	604	1.2	0
72	604	1.3	0
72	604	1.4	0
72	604	1.5	0
72	604	1.6	0
72	604	1.7	0
72	604	1.8	0
72	604	1.9	0
72	604	2	0
72	604	2.1	0
72	604	2.2	0
72	604	2.3	0
72	604	2.4	0
72	604	2.5	0
72	604	2.6	0
72	604	2.7	0
72	604	2.8	0
72	604	2.9	0
72	604	3	0
72	604	3.1	0
72	604	3.2	0
72	604	3.3	0
72	604	3.4	0
72	604	3.5	0
72	604	3.6	0
72	604	3.7	0
72	604	3.8	0
72	604	3.9	0
72	604	4	0
72	604	4.1	0
72	604	4.2	0
72	604	4.3	0
72	604	4.4	0
72	604	4.5	0
72	604	4.6	0
72	604	4.7	0
72	604	4.8	0
72	604	4.9	0
72	604	5	0
72	604	5.1	0
72	604	5.2	0
72	604	5.3	0
72	604	5.4	0
72	604	5.5	0
72	604	5.6	0
72	604	5.7	0
72	604	5.8	0
72	604	5.9	0
72	604	6	0
72	604	6.1	0
72	604	6.2	0
72	604	6.3	0
72	604	6.4	0
72	604	6.5	0
72	604	6.6	0
72	604	6.7	0
72	604	6.8	0
72	604	6.9	0
72	604	7	0
72	604	7.1	0
72	604	7.2	0
72	604	7.3	0
72	604	7.4	0
72	604	7.5	0
72	604	7.6	0
72	604	7.7	0
72	604	7.8	0
72	604	7.9	0
72	604	8	0
72	604	8.1	0
72	604	8.2	0
72	604	8.3	0
72	604	8.4	0
72	604	8.5	0
72	604	8.6	0
72	604	8.7	0
72	604	8.8	0
72	604	8.9	0
72	604	9	0
72	604	9.1	0
72	604	9.2	0
72	604	9.3	0
72	604	9.4	0
72	604	9.5	0
72	604	9.6	0
72	604	9.7	0
72	604	9.8	0
72	604	9.9	0
72	604	10	0
72	604	10.1	0
72	604	10.2	0
72	604	10.3	0
72	604	10.4	0
72	604	10.5	0
72	604	10.6	0
72	604	10.7	0
72	604	10.8	0
72	604	10.9	0
72	604	11	0
72	604	11.1	0
72	604	11.2	0
72	604	11.3	0
72	604	11.4	0
72	604	11.5	0
72	604	11.6	0
72	604	11.7	0
72	604	11.8	0
72	604	11.9	0
72	604	12	0
72	604	12.1	0
72	604	12.2	0
72	604	12.3	0
72	604	12.4	0
72	604	12.5	0
72	604	12.6	0
72	604	12.7	0
72	604	12.8	0
72	604	12.9	0
72	604	13	0
72	604	13.1	0
72	604	13.2	0
72	604	13.3	0
72	604	13.4	0
72	604	13.5	0
72	604	13.6	0
72	604	13.7	0
72	604	13.8	0
72	604	13.9	0
72	604	14	0
72	604	14.1	0
72	604	14.2	0
72	604	14.3	0
72	604	14.4	0
72	604	14.5	0
72	604	14.6	0
72	604	14.7	0
72	604	14.8	0
72	604	14.9	0
72	604	15	0
72	604	15.1	0
72	604	15.2	0
72	604	15.3	0
72	604	15.4	0
72	604	15.5	0
72	604	15.6	0
72	604	15.7	0
72	604	15.8	0
72	1453	15.9	8000
72	1453	16	0
72	1453	16.1	0
72	1453	16.2	0
72	1453	16.3	0
72	1453	16.4	0
72	1453	16.5	0
72	1453	16.6	0
72	1453	16.7	0
72	1453	16.8	0
72	1453	16.9	0
72	1453	17	0
72	1453	17.1	0
72	1453	17.2	0
72	1453	17.3	0
72	1453	17.4	0
72	1453	17.5	0
72	1453	17.6	0
72	1453	17.7	0
72	1453	17.8	0
72	1453	17.9	0
72	1453	18	0
72	1453	18.1	0
72	1453	18.2	0
72	1453	18.3	0
72	1453	18.4	0
72	1453	18.5	0
72	1453	18.6	0
72	1453	18.7	0
72	1453	18.8	0
72	1453	18.9	0
72	1453	19	0
72	1453	19.1	0
72	1453	19.2	0
72	1453	19.3	0
72	1453	19.4	0
72	1453	19.5	0
72	1453	19.6	0
72	1453	19.7	0
72	1453	19.8	0
72	1453	19.9	0
72	1453	20	0
72	1453	20.1	0
72	1453	20.2	0
72	1453	20.3	0
72	1453	20.4	0
72	1453	20.5	0
72	1453	20.6	0
72	1453	20.7	0
72	1453	20.8	0
72	1453	20.9	0
72	1453	21	0
72	1453	21.1	0
72	1453	21.2	0
72	1453	21.3	0
72	1453	21.4	0
72	1453	21.5	0
72	1453	21.6	0
72	1453	21.7	0
72	1453	21.8	0
72	1453	21.9	0
72	1453	22	0
72	1453	22.1	0
72	1453	22.2	0
72	1453	22.3	0
72	1453	22.4	0
72	1453	22.5	0
72	1453	22.6	0
72	1453	22.7	0
72	1453	22.8	0
72	1453	22.9	0
72	1453	23	0
72	1453	23.1	0
72	1453	23.2	0
72	1453	23.3	0
72	1453	23.4	0
72	1453	23.5	0
72	1453	23.6	0
72	1453	23.7	0
72	1453	23.8	0
72	1453	23.9	0
72	1453	24	0
72	1453	24.1	0
72	1453	24.2	0
72	1453	24.3	0
72	1453	24.4	0
72	1453	24.5	0
72	1453	24.6	0
72	1453	24.7	0
72	1453	24.8	0
72	1453	24.9	0
72	1453	25	0
72	1453	25.1	0
72	1453	25.2	0
72	1453	25.3	0
72	1453	25.4	0
72	1453	25.5	0
72	1453	25.6	0
72	1453	25.7	0
72	1453	25.8	0
72	1453	25.9	0
72	1453	26	0
72	1453	26.1	0
72	1453	26.2	0
72	1453	26.3	0
72	1453	26.4	0
72	1453	26.5	0
72	1453	26.6	0
72	1453	26.7	0
72	1453	26.8	0
72	1453	26.9	0
72	1453	27	0
72	1453	27.1	0
72	1453	27.2	0
72	1453	27.3	0
72	1453	27.4	0
72	1453	27.5	0
72	1453	27.6	0
72	1453	27.7	0
72	1453	27.8	0
72	1453	27.9	0
72	1453	28	0
72	1453	28.1	0
72	1453	28.2	0
72	1453	28.3	0
72	1453	28.4	0
72	1453	28.5	0
72	1453	28.6	0
72	1453	28.7	0
72	1453	28.8	0
72	1453	28.9	0
72	1453	29	0
72	1453	29.1	0
72	1453	29.2	0
72	1453	29.3	0
72	1453	29.4	0
72	1453	29.5	0
72	1453	29.6	0
72	1453	29.7	0
72	1453	29.8	0
72	1453	29.9	0
72	1453	30	0
72	1453	30.1	0
72	1453	30.2	0
72	1453	30.3	0
72	1453	30.4	0
72	1453	30.5	0
72	1453	30.6	0
72	1453	30.7	0
72	1453	30.8	0
72	1453	30.9	0
72	1453	31	0
72	1453	31.1	0
72	1453	31.2	0
72	1453	31.3	0
72	1453	31.4	0
72	1453	31.5	0
72	1453	31.6	0
72	1453	31.7	0
72	1453	31.8	0
72	1453	31.9	0
72	1453	32	0
72	1453	32.1	0
72	1453	32.2	0
72	1453	32.3	0
72	1453	32.4	0
72	1453	32.5	0
72	1453	32.6	0
72	1453	32.7	0
72	1453	32.8	0
72	1453	32.9	0
72	1453	33	0
72	1453	33.1	0
72	1453	33.2	0
72	1453	33.3	0
72	1453	33.4	0
72	1453	33.5	0
72	1453	33.6	0
72	1453	33.7	0
72	1453	33.8	0
72	1453	33.9	0
72	1453	34	0
72	1453	34.1	0
72	1453	34.2	0
72	1453	34.3	0
72	1453	34.4	0
72	1453	34.5	0
72	1453	34.6	0
72	1453	34.7	0
72	1453	34.8	0
72	1453	34.9	0
72	1453	35	0
72	1453	35.1	0
72	1453	35.2	0
72	1453	35.3	0
72	1453	35.4	0
72	1453	35.5	0
72	1453	35.6	0
72	1453	35.7	0
72	1453	35.8	0
72	1453	35.9	0
72	1453	36	0
72	1453	36.1	0
72	1453	36.2	0
72	1453	36.3	0
72	1453	36.4	0
72	1453	36.5	0
72	1453	36.6	0
72	1453	36.7	0
72	1453	36.8	0
72	1453	36.9	0
72	1453	37	0
72	1453	37.1	0
72	1453	37.2	0
72	1453	37.3	0
72	1453	37.4	0
72	1453	37.5	0
72	1453	37.6	0
72	1453	37.7	0
72	1453	37.8	0
72	1453	37.9	0
72	1453	38	0
72	1453	38.1	0
72	1453	38.2	0
72	1453	38.3	0
72	1453	38.4	0
72	1453	38.5	0
72	1453	38.6	0
72	1453	38.7	0
72	1453	38.8	0
72	1453	38.9	0
72	1453	39	0
72	1453	39.1	0
72	1453	39.2	0
72	1453	39.3	0
72	1453	39.4	0
72	1453	39.5	0
72	1453	39.6	0
72	1570	39.7	8000
72	1570	39.8	0
72	1570	39.9	0
72	1570	40	0
72	1570	40.1	0
72	1570	40.2	0
72	1570	40.3	0
72	1570	40.4	0
72	1570	40.5	0
72	1570	40.6	0
72	1570	40.7	0
72	1570	40.8	0
72	1570	40.9	0
72	1570	41	0
72	1570	41.1	0
72	1570	41.2	0
72	1570	41.3	0
72	1570	41.4	0
72	1570	41.5	0
72	1570	41.6	0
72	1570	41.7	0
72	1570	41.8	0
72	1570	41.9	0
72	1570	42	0
72	1570	42.1	0
72	1570	42.2	0
72	1570	42.3	0
72	1570	42.4	0
72	1570	42.5	0
72	1570	42.6	0
72	1606	42.7	8000
72	1606	42.8	0
72	1606	42.9	0
72	1606	43	0
72	1606	43.1	0
72	2217	43.2	8000
72	2217	43.3	0
72	2217	43.4	0
72	2217	43.5	0
72	2217	43.6	0
72	2217	43.7	0
72	2217	43.8	0
72	2217	43.9	0
72	2217	44	0
72	2217	44.1	0
72	2217	44.2	0
72	2217	44.3	0
72	2217	44.4	0
72	2217	44.5	0
72	2217	44.6	0
72	2217	44.7	0
72	2217	44.8	0
72	2217	44.9	0
72	2217	45	0
72	2217	45.1	0
72	2217	45.2	0
72	2217	45.3	0
72	2217	45.4	0
72	2217	45.5	0
72	2217	45.6	0
72	2217	45.7	0
72	2217	45.8	0
72	2217	45.9	0
72	2217	46	0
72	2217	46.1	0
72	2217	46.2	0
72	2217	46.3	0
72	2217	46.4	0
72	2217	46.5	0
72	2217	46.6	0
72	2217	46.7	0
72	2217	46.8	0
72	2217	46.9	0
72	2217	47	0
72	2217	47.1	0
72	2217	47.2	0
72	2217	47.3	0
72	2217	47.4	0
72	2217	47.5	0
72	2217	47.6	0
72	2217	47.7	0
72	2217	47.8	0
72	2217	47.9	0
72	2217	48	0
72	2217	48.1	0
72	2217	48.2	0
72	2217	48.3	0
72	2217	48.4	0
72	2217	48.5	0
72	2217	48.6	0
72	2217	48.7	0
72	2217	48.8	0
72	2217	48.9	0
72	2217	49	0
72	2217	49.1	0
72	2217	49.2	0
72	2217	49.3	0
72	2217	49.4	0
72	2217	49.5	0
72	2217	49.6	0
72	2217	49.7	0
72	2217	49.8	0
72	2217	49.9	0
72	2217	50	0
72	2217	50.1	0
72	2217	50.2	0
72	2217	50.3	0
72	2217	50.4	0
72	2217	50.5	0
72	2217	50.6	0
72	2217	50.7	0
72	2217	50.8	0
72	2217	50.9	0
72	2217	51	0
72	2217	51.1	0
72	2217	51.2	0
72	2217	51.3	0
72	2217	51.4	0
72	2217	51.5	0
72	2217	51.6	0
72	2217	51.7	0
72	2217	51.8	0
72	2217	51.9	0
72	2217	52	0
72	2217	52.1	0
72	2217	52.2	0
72	2217	52.3	0
72	2217	52.4	0
72	2217	52.5	0
72	2217	52.6	0
72	2217	52.7	0
72	2217	52.8	0
72	2217	52.9	0
72	2217	53	0
72	2217	53.1	0
72	2217	53.2	0
72	2217	53.3	0
72	2217	53.4	0
72	2217	53.5	0
72	2217	53.6	0
72	2217	53.7	0
72	2217	53.8	0
72	2217	53.9	0
72	2217	54	0
72	2217	54.1	0
72	2217	54.2	0
72	2217	54.3	0
72	2217	54.4	0
72	2217	54.5	0
72	2217	54.6	0
72	2217	54.7	0
72	2217	54.8	0
72	2217	54.9	0
72	2217	55	0
72	2217	55.1	0
72	2217	55.2	0
72	2217	55.3	0
72	2217	55.4	0
72	2217	55.5	0
72	2217	55.6	0
72	2217	55.7	0
72	2217	55.8	0
72	2217	55.9	0
72	2217	56	0
72	2217	56.1	0
72	2217	56.2	0
72	2217	56.3	0
72	2217	56.4	0
72	2217	56.5	0
72	2217	56.6	0
72	2217	56.7	0
72	2217	56.8	0
72	2217	56.9	0
72	2217	57	0
72	2217	57.1	0
72	2217	57.2	0
72	2217	57.3	0
72	2217	57.4	0
72	2217	57.5	0
72	2217	57.6	0
72	2217	57.7	0
72	2217	57.8	0
72	2217	57.9	0
72	2217	58	0
72	2217	58.1	0
72	2217	58.2	0
72	2217	58.3	0
72	2217	58.4	0
72	2217	58.5	0
72	2217	58.6	0
72	2217	58.7	0
72	2217	58.8	0
72	2217	58.9	0
72	2217	59	0
72	2217	59.1	0
72	2217	59.2	0
72	2217	59.3	0
72	2217	59.4	0
72	2217	59.5	0
72	2217	59.6	0
72	2217	59.7	0
72	2217	59.8	0
72	2217	59.9	0
72	2217	60	0
72	2217	60.1	0
72	2217	60.2	0
72	2217	60.3	0
72	2217	60.4	0
72	2217	60.5	0
72	2217	60.6	0
72	2217	60.7	0
72	2217	60.8	0
72	2217	60.9	0
72	2217	61	0
72	2217	61.1	0
72	2217	61.2	0
72	2217	61.3	0
72	2217	61.4	0
72	2217	61.5	0
72	2217	61.6	0
72	2217	61.7	0
72	2217	61.8	0
72	2217	61.9	0
72	2309	62	8000
72	2309	62.1	0
72	2309	62.2	0
72	2309	62.3	0
72	2309	62.4	0
72	2309	62.5	0
72	2309	62.6	0
72	2309	62.7	0
72	2309	62.8	0
72	2309	62.9	0
72	2309	63	0
72	2309	63.1	0
72	2309	63.2	0
72	2309	63.3	0
72	2309	63.4	0
72	2309	63.5	0
72	2309	63.6	0
72	2309	63.7	0
72	2309	63.8	0
72	2309	63.9	0
72	2309	64	0
72	2309	64.1	0
72	2418	64.2	8000
72	2418	64.3	0
72	2418	64.4	0
72	2418	64.5	0
72	2418	64.6	0
72	2418	64.7	0
72	2418	64.8	0
72	2418	64.9	0
72	2418	65	0
72	2418	65.1	0
72	2418	65.2	0
72	2418	65.3	0
72	2418	65.4	0
72	2418	65.5	0
72	2418	65.6	0
72	2418	65.7	0
72	2418	65.8	0
72	2418	65.9	0
72	2418	66	0
72	2418	66.1	0
72	2418	66.2	0
72	2418	66.3	0
72	2418	66.4	0
72	2418	66.5	0
72	2418	66.6	0
72	2418	66.7	0
72	2418	66.8	0
72	2418	66.9	0
72	2418	67	0
72	2637	67.1	8000
72	2637	67.2	0
72	2637	67.3	0
72	2637	67.4	0
72	2637	67.5	0
72	2637	67.6	0
72	2637	67.7	0
72	2637	67.8	0
72	2637	67.9	0
72	2637	68	0
72	2637	68.1	0
72	2637	68.2	0
72	2637	68.3	0
72	2637	68.4	0
72	2637	68.5	0
72	2637	68.6	0
72	2637	68.7	0
72	2637	68.8	0
72	2637	68.9	0
72	2637	69	0
72	2637	69.1	0
72	2637	69.2	0
72	2637	69.3	0
72	2637	69.4	0
72	2637	69.5	0
72	2637	69.6	0
72	2637	69.7	0
72	2637	69.8	0
72	2637	69.9	0
72	2637	70	0
72	2637	70.1	0
72	2637	70.2	0
72	2637	70.3	0
72	2637	70.4	0
72	2637	70.5	0
72	2637	70.6	0
72	2637	70.7	0
72	2637	70.8	0
72	2637	70.9	0
72	2637	71	0
72	2637	71.1	0
72	2637	71.2	0
72	2637	71.3	0
72	2637	71.4	0
72	2637	71.5	0
72	2637	71.6	0
72	2637	71.7	0
72	2637	71.8	0
72	2637	71.9	0
72	2637	72	0
72	2637	72.1	0
72	2637	72.2	0
72	2637	72.3	0
72	2637	72.4	0
72	2637	72.5	0
72	2637	72.6	0
72	2637	72.7	0
72	2637	72.8	0
72	2637	72.9	0
72	2637	73	0
72	3250	73.1	8000
72	3250	73.2	0
72	3250	73.3	0
72	3250	73.4	0
72	3250	73.5	0
72	3250	73.6	0
72	3250	73.7	0
72	3250	73.8	0
72	3250	73.9	0
72	3250	74	0
72	3250	74.1	0
72	3250	74.2	0
72	3250	74.3	0
72	3250	74.4	0
72	3250	74.5	0
72	3250	74.6	0
72	3250	74.7	0
72	3250	74.8	0
72	3250	74.9	0
72	3250	75	0
72	3250	75.1	0
72	3250	75.2	0
72	3250	75.3	0
72	3250	75.4	0
72	3250	75.5	0
72	3250	75.6	0
72	3250	75.7	0
72	3250	75.8	0
72	3250	75.9	0
72	3250	76	0
72	3250	76.1	0
72	3250	76.2	0
72	3250	76.3	0
72	3250	76.4	0
72	3250	76.5	0
72	3250	76.6	0
72	3250	76.7	0
72	3250	76.8	0
72	3250	76.9	0
72	3250	77	0
72	3250	77.1	0
72	3250	77.2	0
72	3250	77.3	0
72	3250	77.4	0
72	3250	77.5	0
72	3250	77.6	0
72	3250	77.7	0
72	3250	77.8	0
72	3250	77.9	0
72	3250	78	0
72	3250	78.1	0
72	3250	78.2	0
72	3250	78.3	0
72	3250	78.4	0
72	3250	78.5	0
72	3250	78.6	0
72	3250	78.7	0
72	3250	78.8	0
72	3250	78.9	0
72	3250	79	0
72	3250	79.1	0
72	3250	79.2	0
72	3250	79.3	0
72	3250	79.4	0
72	3250	79.5	0
72	3250	79.6	0
72	3250	79.7	0
72	3250	79.8	0
72	3250	79.9	0
72	3250	80	0
72	3250	80.1	0
72	3250	80.2	0
72	3250	80.3	0
72	3250	80.4	0
72	3250	80.5	0
72	3250	80.6	0
72	3250	80.7	0
72	3250	80.8	0
72	3250	80.9	0
72	3250	81	0
72	3250	81.1	0
72	3250	81.2	0
72	3250	81.3	0
72	3250	81.4	0
72	3250	81.5	0
72	3250	81.6	0
72	3250	81.7	0
72	3250	81.8	0
72	3250	81.9	0
72	3250	82	0
72	3250	82.1	0
72	3250	82.2	0
72	3250	82.3	0
72	3250	82.4	0
72	3250	82.5	0
72	3250	82.6	0
72	3250	82.7	0
72	3250	82.8	0
72	3250	82.9	0
72	3250	83	0
72	3250	83.1	0
72	3250	83.2	0
72	3250	83.3	0
72	3250	83.4	0
72	3250	83.5	0
72	3250	83.6	0
72	3250	83.7	0
72	3250	83.8	0
72	3250	83.9	0
72	3250	84	0
72	3250	84.1	0
72	3250	84.2	0
72	3250	84.3	0
72	3250	84.4	0
72	3250	84.5	0
72	3250	84.6	0
72	3250	84.7	0
72	3250	84.8	0
72	3250	84.9	0
72	3250	85	0
72	3250	85.1	0
72	3250	85.2	0
72	3250	85.3	0
72	3250	85.4	0
72	3250	85.5	0
72	3250	85.6	0
72	3250	85.7	0
72	3250	85.8	0
72	3250	85.9	0
72	3250	86	0
72	3250	86.1	0
72	3250	86.2	0
72	3250	86.3	0
72	3250	86.4	0
72	3250	86.5	0
72	3250	86.6	0
72	3250	86.7	0
72	3250	86.8	0
72	3250	86.9	0
72	3250	87	0
72	3250	87.1	0
72	3250	87.2	0
72	3250	87.3	0
72	3250	87.4	0
72	3250	87.5	0
72	3250	87.6	0
72	3250	87.7	0
72	3250	87.8	0
72	3250	87.9	0
72	3250	88	0
72	3250	88.1	0
72	3250	88.2	0
72	3250	88.3	0
72	3250	88.4	0
72	3250	88.5	0
72	3250	88.6	0
72	3250	88.7	0
72	3250	88.8	0
72	3250	88.9	0
72	3250	89	0
72	3380	89.1	8000
72	3380	89.2	0
72	3380	89.3	0
72	3380	89.4	0
72	3380	89.5	0
72	3380	89.6	0
72	3380	89.7	0
72	3380	89.8	0
72	3380	89.9	0
72	3380	90	0
72	3380	90.1	0
72	3380	90.2	0
72	3380	90.3	0
72	3380	90.4	0
72	3380	90.5	0
72	3380	90.6	0
72	3380	90.7	0
72	3380	90.8	0
72	3380	90.9	0
72	3380	91	0
72	3380	91.1	0
72	3380	91.2	0
72	3380	91.3	0
72	3380	91.4	0
72	3380	91.5	0
72	3380	91.6	0
72	3380	91.7	0
72	3380	91.8	0
72	3380	91.9	0
72	3380	92	0
72	3380	92.1	0
72	3380	92.2	0
72	3380	92.3	0
72	3380	92.4	0
72	3380	92.5	0
72	3380	92.6	0
72	3757	92.7	8000
72	3757	92.8	0
72	3757	92.9	0
72	3757	93	0
72	3757	93.1	0
72	3757	93.2	0
72	3757	93.3	0
72	3757	93.4	0
72	3757	93.5	0
72	3757	93.6	0
72	3757	93.7	0
72	3757	93.8	0
72	3757	93.9	0
72	3757	94	0
72	3757	94.1	0
72	3757	94.2	0
72	3757	94.3	0
72	3757	94.4	0
72	3757	94.5	0
72	3757	94.6	0
72	3757	94.7	0
72	3757	94.8	0
72	3757	94.9	0
72	3757	95	0
72	3757	95.1	0
72	3757	95.2	0
72	3757	95.3	0
72	3757	95.4	0
72	3757	95.5	0
72	3757	95.6	0
72	3757	95.7	0
72	3757	95.8	0
72	3757	95.9	0
72	3757	96	0
72	3757	96.1	0
72	3757	96.2	0
72	3757	96.3	0
72	3757	96.4	0
72	3757	96.5	0
72	3757	96.6	0
72	3757	96.7	0
72	3757	96.8	0
72	3757	96.9	0
72	3757	97	0
72	3757	97.1	0
72	3757	97.2	0
72	3757	97.3	0
72	3757	97.4	0
72	3757	97.5	0
72	3757	97.6	0
72	3757	97.7	0
72	3757	97.8	0
72	3757	97.9	0
72	3757	98	0
72	3757	98.1	0
72	3757	98.2	0
72	3757	98.3	0
72	3757	98.4	0
72	3757	98.5	0
72	3757	98.6	0
72	3757	98.7	0
72	3757	98.8	0
72	3757	98.9	0
72	3757	99	0
72	3757	99.1	0
72	3757	99.2	0
72	3757	99.3	0
72	3757	99.4	0
72	3757	99.5	0
72	3757	99.6	0
72	3757	99.7	0
72	3757	99.8	0
72	3757	99.9	0
72	3757	100	0
72	3757	100.1	0
72	3757	100.2	0
72	3757	100.3	0
72	3757	100.4	0
72	3757	100.5	0
72	3757	100.6	0
72	3757	100.7	0
72	3757	100.8	0
72	3757	100.9	0
72	3757	101	0
72	3757	101.1	0
72	3757	101.2	0
72	3757	101.3	0
72	3757	101.4	0
72	3757	101.5	0
72	3757	101.6	0
72	3757	101.7	0
72	3757	101.8	0
72	3757	101.9	0
72	3757	102	0
72	3757	102.1	0
72	3757	102.2	0
72	3757	102.3	0
72	3757	102.4	0
72	3757	102.5	0
72	3757	102.6	0
72	3757	102.7	0
72	3757	102.8	0
72	3757	102.9	0
72	3757	103	0
72	3757	103.1	0
72	3757	103.2	0
72	3757	103.3	0
72	3757	103.4	0
72	3757	103.5	0
72	3757	103.6	0
72	3757	103.7	0
72	4028	103.8	8000
72	4028	103.9	0
72	4028	104	0
72	4028	104.1	0
72	4028	104.2	0
72	4028	104.3	0
72	4028	104.4	0
72	4028	104.5	0
72	4028	104.6	0
72	4028	104.7	0
72	4028	104.8	0
72	4028	104.9	0
72	4028	105	0
72	4028	105.1	0
72	4028	105.2	0
72	4028	105.3	0
72	4028	105.4	0
72	4028	105.5	0
72	4028	105.6	0
72	4028	105.7	0
72	4028	105.8	0
72	4028	105.9	0
72	4028	106	0
72	4028	106.1	0
72	4028	106.2	0
72	4028	106.3	0
72	4028	106.4	0
72	4028	106.5	0
72	4028	106.6	0
72	4028	106.7	0
72	4028	106.8	0
72	4028	106.9	0
72	4028	107	0
72	4028	107.1	0
72	4028	107.2	0
72	4028	107.3	0
72	4028	107.4	0
72	4028	107.5	0
72	4028	107.6	0
72	4028	107.7	0
72	4028	107.8	0
72	4028	107.9	0
72	4028	108	0
72	4028	108.1	0
72	4028	108.2	0
72	4028	108.3	0
72	4028	108.4	0
72	4028	108.5	0
72	4028	108.6	0
72	4028	108.7	0
72	4297	108.8	8000
72	4297	108.9	0
72	4297	109	0
72	4297	109.1	0
72	4297	109.2	0
72	4297	109.3	0
72	4297	109.4	0
72	4297	109.5	0
72	4297	109.6	0
72	4297	109.7	0
72	4297	109.8	0
72	4297	109.9	0
72	4297	110	0
72	4297	110.1	0
72	4297	110.2	0
72	4297	110.3	0
72	4297	110.4	0
72	4297	110.5	0
72	4297	110.6	0
72	4297	110.7	0
72	4297	110.8	0
72	4297	110.9	0
72	4297	111	0
72	4297	111.1	0
72	4297	111.2	0
72	4297	111.3	0
72	4297	111.4	0
72	4297	111.5	0
72	4297	111.6	0
72	4297	111.7	0
72	4297	111.8	0
72	4297	111.9	0
72	4297	112	0
72	4297	112.1	0
72	4297	112.2	0
72	4297	112.3	0
72	4297	112.4	0
72	4297	112.5	0
72	4297	112.6	0
72	4297	112.7	0
72	4297	112.8	0
72	4297	112.9	0
72	4297	113	0
72	4297	113.1	0
72	4297	113.2	0
72	4297	113.3	0
72	4297	113.4	0
72	4297	113.5	0
72	4297	113.6	0
72	4297	113.7	0
72	4297	113.8	0
72	4297	113.9	0
72	4297	114	0
72	4297	114.1	0
72	4297	114.2	0
72	4297	114.3	0
72	4297	114.4	0
72	4297	114.5	0
72	4297	114.6	0
72	4297	114.7	0
72	4297	114.8	0
72	4297	114.9	0
72	4297	115	0
72	4297	115.1	0
72	4297	115.2	0
72	4297	115.3	0
72	4297	115.4	0
72	4297	115.5	0
72	4297	115.6	0
72	4297	115.7	0
72	4297	115.8	0
72	4297	115.9	0
72	4297	116	0
72	4297	116.1	0
72	4297	116.2	0
72	4297	116.3	0
72	4297	116.4	0
72	4297	116.5	0
72	4297	116.6	0
72	4297	116.7	0
72	4532	116.8	8000
72	4532	116.9	0
72	4532	117	0
72	4532	117.1	0
72	4532	117.2	0
72	4532	117.3	0
72	4532	117.4	0
72	4532	117.5	0
72	4532	117.6	0
72	4532	117.7	0
72	4532	117.8	0
72	4532	117.9	0
72	4532	118	0
72	4532	118.1	0
72	4532	118.2	0
72	4532	118.3	0
72	4532	118.4	0
72	4532	118.5	0
72	4532	118.6	0
72	4532	118.7	0
72	4532	118.8	0
72	4532	118.9	0
72	4532	119	0
72	4532	119.1	0
72	4532	119.2	0
72	4532	119.3	0
72	4532	119.4	0
72	4532	119.5	0
72	4532	119.6	0
72	4532	119.7	0
72	4532	119.8	0
72	4532	119.9	0
72	4532	120	0
72	4532	120.1	0
72	4532	120.2	0
72	4532	120.3	0
72	4532	120.4	0
72	4532	120.5	0
72	4532	120.6	0
72	4532	120.7	0
72	4532	120.8	0
72	4532	120.9	0
72	4532	121	0
72	4532	121.1	0
72	4532	121.2	0
72	4532	121.3	0
72	4532	121.4	0
72	4532	121.5	0
72	4532	121.6	0
72	4532	121.7	0
72	4532	121.8	0
72	4532	121.9	0
72	4532	122	0
72	4532	122.1	0
72	4532	122.2	0
72	4532	122.3	0
72	4532	122.4	0
72	4532	122.5	0
72	4532	122.6	0
72	4532	122.7	0
72	4532	122.8	0
72	4532	122.9	0
72	4532	123	0
72	4532	123.1	0
72	4532	123.2	0
72	4532	123.3	0
72	4532	123.4	0
72	4532	123.5	0
72	4532	123.6	0
72	4877	123.7	8000
72	4877	123.8	0
72	4877	123.9	0
72	4877	124	0
72	4877	124.1	0
72	4877	124.2	0
72	4877	124.3	0
72	4877	124.4	0
72	4877	124.5	0
72	4877	124.6	0
72	4877	124.7	0
72	4877	124.8	0
72	4877	124.9	0
72	4877	125	0
72	4877	125.1	0
72	4877	125.2	0
72	4877	125.3	0
72	4877	125.4	0
72	4877	125.5	0
72	4877	125.6	0
72	4877	125.7	0
72	4877	125.8	0
72	4877	125.9	0
72	4877	126	0
72	4877	126.1	0
72	4877	126.2	0
72	4877	126.3	0
72	4877	126.4	0
72	4877	126.5	0
72	4877	126.6	0
72	4877	126.7	0
72	4877	126.8	0
72	4877	126.9	0
72	4877	127	0
72	4877	127.1	0
72	4877	127.2	0
72	4877	127.3	0
72	4877	127.4	0
72	4877	127.5	0
72	4877	127.6	0
72	4877	127.7	0
72	4877	127.8	0
72	4877	127.9	0
72	4877	128	0
72	4877	128.1	0
72	4877	128.2	0
72	4877	128.3	0
72	4877	128.4	0
72	4877	128.5	0
72	4877	128.6	0
72	4877	128.7	0
72	4877	128.8	0
72	4877	128.9	0
72	4877	129	0
72	4877	129.1	0
72	4877	129.2	0
72	4877	129.3	0
72	4877	129.4	0
72	4877	129.5	0
72	4877	129.6	0
72	4877	129.7	0
72	4877	129.8	0
72	4877	129.9	0
72	4877	130	0
72	4877	130.1	0
72	4877	130.2	0
72	4877	130.3	0
72	4877	130.4	0
72	4877	130.5	0
72	4877	130.6	0
72	4877	130.7	0
72	5417	130.8	8000
72	5417	130.9	0
72	5417	131	0
72	5417	131.1	0
72	5417	131.2	0
72	5417	131.3	0
72	5417	131.4	0
72	5417	131.5	0
72	5417	131.6	0
72	5417	131.7	0
72	5417	131.8	0
72	5417	131.9	0
72	5417	132	0
72	5417	132.1	0
72	5417	132.2	0
72	5417	132.3	0
72	5417	132.4	0
72	5417	132.5	0
72	5417	132.6	0
72	5417	132.7	0
72	5417	132.8	0
72	5417	132.9	0
72	5417	133	0
72	5417	133.1	0
72	5417	133.2	0
72	5417	133.3	0
72	5417	133.4	0
72	5417	133.5	0
72	5417	133.6	0
72	5417	133.7	0
72	5417	133.8	0
72	5417	133.9	0
72	5417	134	0
72	5417	134.1	0
72	5417	134.2	0
72	5417	134.3	0
72	5417	134.4	0
72	5417	134.5	0
72	5417	134.6	0
72	5417	134.7	0
72	5417	134.8	0
72	5417	134.9	0
72	5417	135	0
72	5417	135.1	0
72	5417	135.2	0
72	5417	135.3	0
72	5417	135.4	0
72	5417	135.5	0
72	5417	135.6	0
72	5417	135.7	0
72	5417	135.8	0
72	5417	135.9	0
72	5417	136	0
72	5417	136.1	0
72	5417	136.2	0
72	5417	136.3	0
72	5417	136.4	0
72	5417	136.5	0
72	5417	136.6	0
72	5417	136.7	0
72	5417	136.8	0
72	5417	136.9	0
72	5417	137	0
72	5417	137.1	0
72	5417	137.2	0
72	5417	137.3	0
72	5417	137.4	0
72	5417	137.5	0
72	5417	137.6	0
72	5417	137.7	0
72	5417	137.8	0
72	5417	137.9	0
72	5417	138	0
72	5417	138.1	0
72	5417	138.2	0
72	5417	138.3	0
72	5417	138.4	0
72	5417	138.5	0
72	5417	138.6	0
72	5417	138.7	0
72	5417	138.8	0
72	5417	138.9	0
72	5417	139	0
72	5417	139.1	0
72	5417	139.2	0
72	5417	139.3	0
72	5417	139.4	0
72	5417	139.5	0
72	5417	139.6	0
72	5417	139.7	0
72	5417	139.8	0
72	5417	139.9	0
72	5417	140	0
72	5417	140.1	0
72	5417	140.2	0
72	5417	140.3	0
72	5417	140.4	0
72	5417	140.5	0
72	5417	140.6	0
72	5417	140.7	0
72	5417	140.8	0
72	5417	140.9	0
72	5417	141	0
72	5417	141.1	0
72	5417	141.2	0
72	5417	141.3	0
72	5417	141.4	0
72	5417	141.5	0
72	5417	141.6	0
72	5417	141.7	0
72	5417	141.8	0
72	5417	141.9	0
72	5417	142	0
72	5417	142.1	0
72	5417	142.2	0
72	5417	142.3	0
72	5417	142.4	0
72	5417	142.5	0
72	5417	142.6	0
72	5417	142.7	0
72	5417	142.8	0
72	5417	142.9	0
72	5417	143	0
72	5417	143.1	0
72	5417	143.2	0
72	5417	143.3	0
72	5417	143.4	0
72	5417	143.5	0
72	5417	143.6	0
72	5417	143.7	0
72	5417	143.8	0
72	5417	143.9	0
72	5417	144	0
72	5417	144.1	0
72	5417	144.2	0
72	5417	144.3	0
72	5417	144.4	0
72	5598	144.5	8000
72	5598	144.6	0
72	5598	144.7	0
72	5598	144.8	0
72	5598	144.9	0
72	5598	145	0
72	5598	145.1	0
72	5598	145.2	0
72	5598	145.3	0
72	5598	145.4	0
72	5598	145.5	0
72	5598	145.6	0
72	5598	145.7	0
72	5598	145.8	0
72	5598	145.9	0
72	5598	146	0
72	5598	146.1	0
72	5598	146.2	0
72	5598	146.3	0
72	5598	146.4	0
72	5598	146.5	0
72	5598	146.6	0
72	5598	146.7	0
72	5598	146.8	0
72	5598	146.9	0
72	5598	147	0
72	5598	147.1	0
72	5598	147.2	0
72	5598	147.3	0
72	5598	147.4	0
72	5598	147.5	0
72	5598	147.6	0
72	5598	147.7	0
72	5598	147.8	0
72	5598	147.9	0
72	5598	148	0
72	5598	148.1	0
72	5937	148.2	8000
72	5937	148.3	0
72	5937	148.4	0
72	5937	148.5	0
72	5937	148.6	0
72	5937	148.7	0
72	5937	148.8	0
72	5937	148.9	0
72	5937	149	0
72	5937	149.1	0
72	5937	149.2	0
72	5937	149.3	0
72	5937	149.4	0
72	5937	149.5	0
72	5937	149.6	0
72	5937	149.7	0
72	5937	149.8	0
72	5937	149.9	0
72	5937	150	0
72	5937	150.1	0
72	5937	150.2	0
72	5937	150.3	0
72	5937	150.4	0
72	5937	150.5	0
72	5937	150.6	0
72	5937	150.7	0
72	5937	150.8	0
72	5937	150.9	0
72	5937	151	0
72	5937	151.1	0
72	5937	151.2	0
72	5937	151.3	0
72	5937	151.4	0
72	5937	151.5	0
72	5937	151.6	0
72	5937	151.7	0
72	5937	151.8	0
72	5937	151.9	0
72	5937	152	0
72	5937	152.1	0
72	5937	152.2	0
72	5937	152.3	0
72	5937	152.4	0
72	5937	152.5	0
72	5937	152.6	0
72	5937	152.7	0
72	5937	152.8	0
72	5937	152.9	0
72	5937	153	0
72	5937	153.1	0
72	5937	153.2	0
72	5937	153.3	0
72	5937	153.4	0
72	5937	153.5	0
72	5937	153.6	0
72	5937	153.7	0
72	5937	153.8	0
72	5937	153.9	0
72	5937	154	0
72	5937	154.1	0
72	5937	154.2	0
72	5937	154.3	0
72	5937	154.4	0
72	5937	154.5	0
72	5937	154.6	0
72	5937	154.7	0
72	5937	154.8	0
72	5937	154.9	0
72	5937	155	0
72	5937	155.1	0
72	5937	155.2	0
72	5937	155.3	0
72	5937	155.4	0
72	5937	155.5	0
72	5937	155.6	0
72	5937	155.7	0
72	5937	155.8	0
72	5937	155.9	0
72	5937	156	0
72	5937	156.1	0
72	5937	156.2	0
72	5937	156.3	0
72	5937	156.4	0
72	5937	156.5	0
72	5937	156.6	0
72	5937	156.7	0
72	5937	156.8	0
72	5937	156.9	0
72	5937	157	0
72	5937	157.1	0
72	5937	157.2	0
72	5937	157.3	0
72	5937	157.4	0
72	5937	157.5	0
72	5937	157.6	0
72	5937	157.7	0
72	5937	157.8	0
72	5937	157.9	0
72	5937	158	0
72	6165	158.1	8000
72	6165	158.2	0
72	6165	158.3	0
72	6165	158.4	0
72	6165	158.5	0
72	6165	158.6	0
72	6165	158.7	0
72	6165	158.8	0
72	6165	158.9	0
72	6165	159	0
72	6165	159.1	0
72	6165	159.2	0
72	6165	159.3	0
72	6165	159.4	0
72	6165	159.5	0
72	6165	159.6	0
72	6165	159.7	0
72	6165	159.8	0
72	6165	159.9	0
72	6165	160	0
72	6165	160.1	0
72	6165	160.2	0
72	6165	160.3	0
72	6165	160.4	0
72	6165	160.5	0
72	6165	160.6	0
72	6165	160.7	0
72	6165	160.8	0
72	6165	160.9	0
72	6165	161	0
72	6165	161.1	0
72	6165	161.2	0
72	6165	161.3	0
72	6165	161.4	0
72	6165	161.5	0
72	6165	161.6	0
72	6165	161.7	0
72	6165	161.8	0
72	6165	161.9	0
72	6165	162	0
72	6165	162.1	0
72	6165	162.2	0
72	6165	162.3	0
72	6165	162.4	0
72	6165	162.5	0
72	6165	162.6	0
72	6165	162.7	0
72	6165	162.8	0
72	6165	162.9	0
72	6165	163	0
72	6165	163.1	0
72	6165	163.2	0
72	6165	163.3	0
72	6165	163.4	0
72	6165	163.5	0
72	6165	163.6	0
72	6165	163.7	0
72	6165	163.8	0
72	6165	163.9	0
72	6165	164	0
72	6165	164.1	0
72	6165	164.2	0
72	6241	164.3	8000
72	6241	164.4	0
72	6241	164.5	0
72	6241	164.6	0
72	6241	164.7	0
72	6241	164.8	0
72	6241	164.9	0
72	6241	165	0
72	6241	165.1	0
72	6241	165.2	0
72	6241	165.3	0
72	6241	165.4	0
72	6241	165.5	0
72	6241	165.6	0
72	6241	165.7	0
72	6241	165.8	0
72	6241	165.9	0
72	6718	166	8000
72	6718	166.1	0
72	6718	166.2	0
72	6718	166.3	0
72	6718	166.4	0
72	6718	166.5	0
72	6718	166.6	0
72	6718	166.7	0
72	6718	166.8	0
72	6718	166.9	0
72	6718	167	0
72	6718	167.1	0
72	6718	167.2	0
72	6718	167.3	0
72	6718	167.4	0
72	6718	167.5	0
72	6718	167.6	0
72	6718	167.7	0
72	6718	167.8	0
72	6718	167.9	0
72	6718	168	0
72	6718	168.1	0
72	6718	168.2	0
72	6718	168.3	0
72	6718	168.4	0
72	6718	168.5	0
72	6718	168.6	0
72	6718	168.7	0
72	6718	168.8	0
72	6718	168.9	0
72	6718	169	0
72	6718	169.1	0
72	6718	169.2	0
72	6718	169.3	0
72	6718	169.4	0
72	6718	169.5	0
72	6718	169.6	0
72	6718	169.7	0
72	6718	169.8	0
72	6718	169.9	0
72	6718	170	0
72	6718	170.1	0
72	6718	170.2	0
72	6718	170.3	0
72	6718	170.4	0
72	6718	170.5	0
72	6718	170.6	0
72	6718	170.7	0
72	6718	170.8	0
72	6718	170.9	0
72	6718	171	0
72	6718	171.1	0
72	6718	171.2	0
72	6718	171.3	0
72	6718	171.4	0
72	6718	171.5	0
72	6718	171.6	0
72	6718	171.7	0
72	6718	171.8	0
72	6718	171.9	0
72	6718	172	0
72	6718	172.1	0
72	6718	172.2	0
72	6718	172.3	0
72	6718	172.4	0
72	6718	172.5	0
72	6718	172.6	0
72	6718	172.7	0
72	6718	172.8	0
72	6718	172.9	0
72	6718	173	0
72	6718	173.1	0
72	6718	173.2	0
72	6718	173.3	0
72	6718	173.4	0
72	6718	173.5	0
72	6718	173.6	0
72	6718	173.7	0
72	6718	173.8	0
72	6718	173.9	0
72	6718	174	0
72	6718	174.1	0
72	6718	174.2	0
72	6718	174.3	0
72	6718	174.4	0
72	6718	174.5	0
72	6718	174.6	0
72	6718	174.7	0
72	6718	174.8	0
72	6718	174.9	0
72	6718	175	0
72	6718	175.1	0
72	6718	175.2	0
72	6718	175.3	0
72	6718	175.4	0
72	6718	175.5	0
72	6718	175.6	0
72	6718	175.7	0
72	6718	175.8	0
72	6718	175.9	0
72	6718	176	0
72	6718	176.1	0
72	6718	176.2	0
72	6718	176.3	0
72	6718	176.4	0
72	6718	176.5	0
72	6718	176.6	0
72	6718	176.7	0
72	6718	176.8	0
72	6718	176.9	0
72	6718	177	0
72	6718	177.1	0
72	6718	177.2	0
72	6718	177.3	0
72	6718	177.4	0
72	6718	177.5	0
72	6718	177.6	0
72	6718	177.7	0
72	6718	177.8	0
72	6718	177.9	0
72	6718	178	0
72	6718	178.1	0
72	6718	178.2	0
72	6718	178.3	0
72	6718	178.4	0
72	6718	178.5	0
72	6718	178.6	0
72	6718	178.7	0
72	6718	178.8	0
72	6718	178.9	0
72	6718	179	0
72	6718	179.1	0
72	6718	179.2	0
72	6718	179.3	0
72	6718	179.4	0
72	6775	179.5	8000
72	6775	179.6	0
72	6775	179.7	0
72	6775	179.8	0
72	6775	179.9	0
72	6775	180	0
72	7217	180.1	8000
72	7217	180.2	0
72	7217	180.3	0
72	7217	180.4	0
72	7217	180.5	0
72	7217	180.6	0
72	7217	180.7	0
72	7217	180.8	0
72	7217	180.9	0
72	7217	181	0
72	7217	181.1	0
72	7217	181.2	0
72	7217	181.3	0
72	7217	181.4	0
72	7217	181.5	0
72	7217	181.6	0
72	7217	181.7	0
72	7217	181.8	0
72	7217	181.9	0
72	7217	182	0
72	7217	182.1	0
72	7217	182.2	0
72	7217	182.3	0
72	7217	182.4	0
72	7217	182.5	0
72	7217	182.6	0
72	7217	182.7	0
72	7217	182.8	0
72	7217	182.9	0
72	7217	183	0
72	7217	183.1	0
72	7217	183.2	0
72	7217	183.3	0
72	7217	183.4	0
72	7217	183.5	0
72	7217	183.6	0
72	7217	183.7	0
72	7217	183.8	0
72	7217	183.9	0
72	7217	184	0
72	7217	184.1	0
72	7217	184.2	0
72	7217	184.3	0
72	7217	184.4	0
72	7217	184.5	0
72	7217	184.6	0
72	7217	184.7	0
72	7217	184.8	0
72	7217	184.9	0
72	7217	185	0
72	7217	185.1	0
72	7217	185.2	0
72	7217	185.3	0
72	7217	185.4	0
72	7217	185.5	0
72	7217	185.6	0
72	7217	185.7	0
72	7217	185.8	0
72	7217	185.9	0
72	7217	186	0
72	7217	186.1	0
72	7217	186.2	0
72	7217	186.3	0
72	7217	186.4	0
72	7217	186.5	0
72	7217	186.6	0
72	7217	186.7	0
72	7217	186.8	0
72	7217	186.9	0
72	7217	187	0
72	7217	187.1	0
72	7217	187.2	0
72	7217	187.3	0
72	7217	187.4	0
72	7217	187.5	0
72	7217	187.6	0
72	7217	187.7	0
72	7217	187.8	0
72	7217	187.9	0
72	7217	188	0
72	7217	188.1	0
72	7217	188.2	0
72	7217	188.3	0
72	7217	188.4	0
72	7217	188.5	0
72	7217	188.6	0
72	7217	188.7	0
72	7217	188.8	0
72	7217	188.9	0
72	7217	189	0
72	7217	189.1	0
72	7217	189.2	0
72	7217	189.3	0
72	7217	189.4	0
72	7217	189.5	0
72	7217	189.6	0
72	7217	189.7	0
72	7217	189.8	0
72	7217	189.9	0
72	7217	190	0
72	7217	190.1	0
72	7217	190.2	0
72	7217	190.3	0
72	7217	190.4	0
72	7217	190.5	0
72	7217	190.6	0
72	7217	190.7	0
72	7217	190.8	0
72	7217	190.9	0
72	7217	191	0
72	7217	191.1	0
72	7217	191.2	0
72	7217	191.3	0
72	7217	191.4	0
72	7217	191.5	0
72	7217	191.6	0
72	7217	191.7	0
72	7217	191.8	0
72	7217	191.9	0
72	7217	192	0
72	7217	192.1	0
72	7217	192.2	0
72	7217	192.3	0
72	7217	192.4	0
72	7217	192.5	0
72	7217	192.6	0
72	7217	192.7	0
72	7217	192.8	0
72	7217	192.9	0
72	7217	193	0
72	7217	193.1	0
72	7217	193.2	0
72	7217	193.3	0
72	7217	193.4	0
72	7217	193.5	0
72	7217	193.6	0
72	7217	193.7	0
72	7277	193.8	8000
72	7277	193.9	0
72	7277	194	0
72	7277	194.1	0
72	7277	194.2	0
72	7277	194.3	0
72	7277	194.4	0
72	7277	194.5	0
72	7277	194.6	0
72	7277	194.7	0
72	7277	194.8	0
72	7277	194.9	0
72	7568	195	8000
72	7568	195.1	0
72	7568	195.2	0
72	7568	195.3	0
72	7568	195.4	0
72	7568	195.5	0
72	7568	195.6	0
72	7568	195.7	0
72	7568	195.8	0
72	7568	195.9	0
72	7568	196	0
72	7568	196.1	0
72	7568	196.2	0
72	7568	196.3	0
72	7568	196.4	0
72	7568	196.5	0
72	7568	196.6	0
72	7568	196.7	0
72	7568	196.8	0
72	7568	196.9	0
72	7568	197	0
72	7568	197.1	0
72	7568	197.2	0
72	7568	197.3	0
72	7568	197.4	0
72	7568	197.5	0
72	7568	197.6	0
72	7568	197.7	0
72	7568	197.8	0
72	7568	197.9	0
72	7568	198	0
72	7568	198.1	0
72	7568	198.2	0
72	7568	198.3	0
72	7568	198.4	0
72	7568	198.5	0
72	7568	198.6	0
72	7568	198.7	0
72	7568	198.8	0
72	7568	198.9	0
72	7568	199	0
72	7568	199.1	0
72	7568	199.2	0
72	7568	199.3	0
72	7568	199.4	0
72	7568	199.5	0
72	7568	199.6	0
72	7568	199.7	0
72	7568	199.8	0
72	7568	199.9	0
72	7568	200	0
72	7568	200.1	0
72	7568	200.2	0
72	7568	200.3	0
72	7568	200.4	0
72	7568	200.5	0
72	7568	200.6	0
72	7568	200.7	0
72	7568	200.8	0
72	7568	200.9	0
72	7568	201	0
72	7568	201.1	0
72	7568	201.2	0
72	7568	201.3	0
72	7568	201.4	0
72	7568	201.5	0
72	7568	201.6	0
72	7568	201.7	0
72	7568	201.8	0
72	7568	201.9	0
72	7568	202	0
72	7568	202.1	0
72	7568	202.2	0
72	7568	202.3	0
72	7568	202.4	0
72	7568	202.5	0
72	7568	202.6	0
72	7568	202.7	0
72	7568	202.8	0
72	7568	202.9	0
72	7568	203	0
72	7568	203.1	0
72	7568	203.2	0
72	7743	203.3	8000
72	7743	203.4	0
72	7743	203.5	0
72	7743	203.6	0
72	7743	203.7	0
72	7743	203.8	0
72	7743	203.9	0
72	7743	204	0
72	7743	204.1	0
72	7743	204.2	0
72	7743	204.3	0
72	7743	204.4	0
72	7743	204.5	0
72	7743	204.6	0
72	7743	204.7	0
72	7743	204.8	0
72	7743	204.9	0
72	7743	205	0
72	7743	205.1	0
72	7743	205.2	0
72	7743	205.3	0
72	7743	205.4	0
72	7743	205.5	0
72	7743	205.6	0
72	7743	205.7	0
72	7743	205.8	0
72	7743	205.9	0
72	7743	206	0
72	7743	206.1	0
72	7743	206.2	0
72	7743	206.3	0
72	7743	206.4	0
72	7743	206.5	0
72	7743	206.6	0
72	7743	206.7	0
72	7743	206.8	0
72	7743	206.9	0
72	7743	207	0
72	7743	207.1	0
72	7743	207.2	0
72	7743	207.3	0
72	7743	207.4	0
72	7743	207.5	0
72	7743	207.6	0
72	7743	207.7	0
72	8329	207.8	8000
72	8329	207.9	0
72	8329	208	0
72	8329	208.1	0
72	8329	208.2	0
72	8329	208.3	0
72	8329	208.4	0
72	8329	208.5	0
72	8329	208.6	0
72	8329	208.7	0
72	8329	208.8	0
72	8329	208.9	0
72	8329	209	0
72	8329	209.1	0
72	8329	209.2	0
72	8329	209.3	0
72	8329	209.4	0
72	8329	209.5	0
72	8329	209.6	0
72	8329	209.7	0
72	8329	209.8	0
72	8329	209.9	0
72	8329	210	0
72	8329	210.1	0
72	8329	210.2	0
72	8329	210.3	0
72	8329	210.4	0
72	8329	210.5	0
72	8329	210.6	0
72	8329	210.7	0
72	8329	210.8	0
72	8329	210.9	0
72	8329	211	0
72	8329	211.1	0
72	8329	211.2	0
72	8329	211.3	0
72	8329	211.4	0
72	8329	211.5	0
72	8329	211.6	0
72	8329	211.7	0
72	8329	211.8	0
72	8329	211.9	0
72	8329	212	0
72	8329	212.1	0
72	8329	212.2	0
72	8329	212.3	0
72	8329	212.4	0
72	8329	212.5	0
72	8329	212.6	0
72	8329	212.7	0
72	8329	212.8	0
72	8329	212.9	0
72	8329	213	0
72	8329	213.1	0
72	8329	213.2	0
72	8329	213.3	0
72	8329	213.4	0
72	8329	213.5	0
72	8329	213.6	0
72	8329	213.7	0
72	8329	213.8	0
72	8329	213.9	0
72	8329	214	0
72	8329	214.1	0
72	8329	214.2	0
72	8329	214.3	0
72	8329	214.4	0
72	8329	214.5	0
72	8329	214.6	0
72	8329	214.7	0
72	8329	214.8	0
72	8329	214.9	0
72	8329	215	0
72	8329	215.1	0
72	8329	215.2	0
72	8329	215.3	0
72	8329	215.4	0
72	8329	215.5	0
72	8329	215.6	0
72	8329	215.7	0
72	8329	215.8	0
72	8329	215.9	0
72	8329	216	0
72	8329	216.1	0
72	8329	216.2	0
72	8329	216.3	0
72	8329	216.4	0
72	8329	216.5	0
72	8329	216.6	0
72	8329	216.7	0
72	8329	216.8	0
72	8329	216.9	0
72	8329	217	0
72	8329	217.1	0
72	8329	217.2	0
72	8329	217.3	0
72	8329	217.4	0
72	8329	217.5	0
72	8329	217.6	0
72	8329	217.7	0
72	8329	217.8	0
72	8329	217.9	0
72	8329	218	0
72	8329	218.1	0
72	8329	218.2	0
72	8329	218.3	0
72	8329	218.4	0
72	8329	218.5	0
72	8329	218.6	0
72	8329	218.7	0
72	8329	218.8	0
72	8329	218.9	0
72	8329	219	0
72	8329	219.1	0
72	8329	219.2	0
72	8329	219.3	0
72	8329	219.4	0
72	8329	219.5	0
72	8329	219.6	0
72	8329	219.7	0
72	8329	219.8	0
72	8329	219.9	0
72	8329	220	0
72	8329	220.1	0
72	8329	220.2	0
72	8329	220.3	0
72	8329	220.4	0
72	8329	220.5	0
72	8329	220.6	0
72	8329	220.7	0
72	8329	220.8	0
72	8329	220.9	0
72	8329	221	0
72	8329	221.1	0
72	8329	221.2	0
72	8329	221.3	0
72	8329	221.4	0
72	8329	221.5	0
72	8329	221.6	0
72	8329	221.7	0
72	8329	221.8	0
72	8329	221.9	0
72	8329	222	0
72	8329	222.1	0
72	8329	222.2	0
72	8329	222.3	0
72	8329	222.4	0
72	8329	222.5	0
72	8329	222.6	0
72	8329	222.7	0
72	8329	222.8	0
72	8403	222.9	8000
72	8403	223	0
72	8403	223.1	0
72	8403	223.2	0
72	8403	223.3	0
72	8403	223.4	0
72	8403	223.5	0
72	8403	223.6	0
72	8403	223.7	0
72	8403	223.8	0
72	8403	223.9	0
72	8403	224	0
72	8403	224.1	0
72	8403	224.2	0
72	8403	224.3	0
72	8403	224.4	0
72	8403	224.5	0
72	8403	224.6	0
72	9037	224.7	8000
72	9037	224.8	0
72	9037	224.9	0
72	9037	225	0
72	9037	225.1	0
72	9037	225.2	0
72	9037	225.3	0
72	9037	225.4	0
72	9037	225.5	0
72	9037	225.6	0
72	9037	225.7	0
72	9037	225.8	0
72	9037	225.9	0
72	9037	226	0
72	9037	226.1	0
72	9037	226.2	0
72	9037	226.3	0
72	9037	226.4	0
72	9037	226.5	0
72	9037	226.6	0
72	9037	226.7	0
72	9037	226.8	0
72	9037	226.9	0
72	9037	227	0
72	9037	227.1	0
72	9037	227.2	0
72	9037	227.3	0
72	9037	227.4	0
72	9037	227.5	0
72	9037	227.6	0
72	9037	227.7	0
72	9037	227.8	0
72	9037	227.9	0
72	9037	228	0
72	9037	228.1	0
72	9037	228.2	0
72	9037	228.3	0
72	9037	228.4	0
72	9037	228.5	0
72	9037	228.6	0
72	9037	228.7	0
72	9037	228.8	0
72	9037	228.9	0
72	9037	229	0
72	9037	229.1	0
72	9037	229.2	0
72	9037	229.3	0
72	9037	229.4	0
72	9037	229.5	0
72	9037	229.6	0
72	9037	229.7	0
72	9037	229.8	0
72	9037	229.9	0
72	9037	230	0
72	9037	230.1	0
72	9037	230.2	0
72	9037	230.3	0
72	9037	230.4	0
72	9037	230.5	0
72	9037	230.6	0
72	9037	230.7	0
72	9037	230.8	0
72	9037	230.9	0
72	9037	231	0
72	9037	231.1	0
72	9037	231.2	0
72	9037	231.3	0
72	9037	231.4	0
72	9037	231.5	0
72	9037	231.6	0
72	9037	231.7	0
72	9037	231.8	0
72	9037	231.9	0
72	9037	232	0
72	9037	232.1	0
72	9037	232.2	0
72	9037	232.3	0
72	9037	232.4	0
72	9037	232.5	0
72	9037	232.6	0
72	9037	232.7	0
72	9037	232.8	0
72	9037	232.9	0
72	9037	233	0
72	9037	233.1	0
72	9037	233.2	0
72	9037	233.3	0
72	9037	233.4	0
72	9037	233.5	0
72	9037	233.6	0
72	9037	233.7	0
72	9037	233.8	0
72	9037	233.9	0
72	9037	234	0
72	9037	234.1	0
72	9037	234.2	0
72	9037	234.3	0
72	9037	234.4	0
72	9037	234.5	0
72	9037	234.6	0
72	9037	234.7	0
72	9037	234.8	0
72	9037	234.9	0
72	9037	235	0
72	9037	235.1	0
72	9037	235.2	0
72	9037	235.3	0
72	9037	235.4	0
72	9037	235.5	0
72	9037	235.6	0
72	9037	235.7	0
72	9037	235.8	0
72	9037	235.9	0
72	9037	236	0
72	9037	236.1	0
72	9037	236.2	0
72	9037	236.3	0
72	9037	236.4	0
72	9037	236.5	0
72	9037	236.6	0
72	9037	236.7	0
72	9037	236.8	0
72	9037	236.9	0
72	9037	237	0
72	9037	237.1	0
72	9037	237.2	0
72	9037	237.3	0
72	9037	237.4	0
72	9037	237.5	0
72	9037	237.6	0
72	9037	237.7	0
72	9037	237.8	0
72	9037	237.9	0
72	9037	238	0
72	9037	238.1	0
72	9037	238.2	0
72	9037	238.3	0
72	9037	238.4	0
72	9037	238.5	0
72	9037	238.6	0
72	9037	238.7	0
72	9037	238.8	0
72	9037	238.9	0
72	9037	239	0
72	9037	239.1	0
72	9037	239.2	0
72	9037	239.3	0
72	9037	239.4	0
72	9037	239.5	0
72	9037	239.6	0
72	9037	239.7	0
72	9037	239.8	0
72	9037	239.9	0
72	9037	240	0
72	9037	240.1	0
72	9037	240.2	0
72	9037	240.3	0
72	9037	240.4	0
72	9037	240.5	0
72	9037	240.6	0
72	9037	240.7	0
72	9037	240.8	0
72	9037	240.9	0
72	9037	241	0
72	9037	241.1	0
72	9037	241.2	0
72	9037	241.3	0
72	9037	241.4	0
72	9037	241.5	0
72	9037	241.6	0
72	9037	241.7	0
72	9037	241.8	0
72	9037	241.9	0
72	9037	242	0
72	9037	242.1	0
72	9037	242.2	0
72	9037	242.3	0
72	9037	242.4	0
72	9037	242.5	0
72	9037	242.6	0
72	9037	242.7	0
72	9037	242.8	0
72	9037	242.9	0
72	9037	243	0
72	9037	243.1	0
72	9037	243.2	0
72	9037	243.3	0
72	9037	243.4	0
72	9037	243.5	0
72	9037	243.6	0
72	9037	243.7	0
72	9037	243.8	0
72	9037	243.9	0
72	9037	244	0
72	9037	244.1	0
72	9037	244.2	0
72	9037	244.3	0
72	9037	244.4	0
72	9148	244.5	8000
72	9148	244.6	0
72	9148	244.7	0
72	9148	244.8	0
72	9148	244.9	0
72	9148	245	0
72	9148	245.1	0
72	9148	245.2	0
72	9148	245.3	0
72	9148	245.4	0
72	9148	245.5	0
72	9148	245.6	0
72	9148	245.7	0
72	9148	245.8	0
72	9148	245.9	0
72	9148	246	0
72	9148	246.1	0
72	9148	246.2	0
72	9148	246.3	0
72	9148	246.4	0
72	9148	246.5	0
72	9148	246.6	0
72	9148	246.7	0
72	9148	246.8	0
72	9148	246.9	0
72	9148	247	0
72	9148	247.1	0
72	9148	247.2	0
72	9148	247.3	0
72	9148	247.4	0
72	9148	247.5	0
72	9633	247.6	16000
72	9633	247.7	0
72	9633	247.8	0
72	9633	247.9	0
72	9633	248	0
72	9633	248.1	0
72	9633	248.2	0
72	9633	248.3	0
72	9633	248.4	0
72	9633	248.5	0
72	9633	248.6	0
72	9633	248.7	0
72	9633	248.8	0
72	9633	248.9	0
72	9633	249	0
72	9633	249.1	0
72	9633	249.2	0
72	9633	249.3	0
72	9633	249.4	0
72	9633	249.5	0
72	9633	249.6	0
72	9633	249.7	0
72	9633	249.8	0
72	9633	249.9	0
72	9633	250	0
72	9633	250.1	0
72	9633	250.2	0
72	9633	250.3	0
72	9633	250.4	0
72	9633	250.5	0
72	9633	250.6	0
72	9633	250.7	0
72	9633	250.8	0
72	9633	250.9	0
72	9633	251	0
72	9633	251.1	0
72	9633	251.2	0
72	9633	251.3	0
72	9633	251.4	0
72	9633	251.5	0
72	9633	251.6	0
72	9633	251.7	0
72	9633	251.8	0
72	9633	251.9	0
72	9633	252	0
72	9633	252.1	0
72	9633	252.2	0
72	9633	252.3	0
72	9633	252.4	0
72	9633	252.5	0
72	9633	252.6	0
72	9633	252.7	0
72	9633	252.8	0
72	9633	252.9	0
72	9633	253	0
72	9633	253.1	0
72	9633	253.2	0
72	9633	253.3	0
72	9633	253.4	0
72	9633	253.5	0
72	9633	253.6	0
72	9633	253.7	0
72	9633	253.8	0
72	9633	253.9	0
72	9633	254	0
72	9633	254.1	0
72	9633	254.2	0
72	9633	254.3	0
72	9633	254.4	0
72	9633	254.5	0
72	9633	254.6	0
72	9633	254.7	0
72	9633	254.8	0
72	9633	254.9	0
72	9633	255	0
72	9633	255.1	0
72	9633	255.2	0
72	9633	255.3	0
72	9633	255.4	0
72	9633	255.5	0
72	9633	255.6	0
72	9633	255.7	0
72	9633	255.8	0
72	9633	255.9	0
72	9633	256	0
72	9633	256.1	0
72	9633	256.2	0
72	9633	256.3	0
72	9633	256.4	0
72	9633	256.5	0
72	9633	256.6	0
72	9633	256.7	0
72	9633	256.8	0
72	9633	256.9	0
72	9633	257	0
72	9633	257.1	0
72	9633	257.2	0
72	9633	257.3	0
72	9633	257.4	0
72	9633	257.5	0
72	9633	257.6	0
72	9633	257.7	0
72	9633	257.8	0
72	9633	257.9	0
72	9633	258	0
72	9633	258.1	0
72	9633	258.2	0
72	9633	258.3	0
72	9633	258.4	0
72	9633	258.5	0
72	9633	258.6	0
72	9633	258.7	0
72	9633	258.8	0
72	9633	258.9	0
72	9633	259	0
72	9633	259.1	0
72	9633	259.2	0
72	9633	259.3	0
72	9633	259.4	0
72	9633	259.5	0
72	9633	259.6	0
72	9633	259.7	0
72	9633	259.8	0
72	9633	259.9	0
72	9633	260	0
72	9633	260.1	0
72	9633	260.2	0
72	9633	260.3	0
72	9633	260.4	0
72	9633	260.5	0
72	9633	260.6	0
72	9633	260.7	0
72	9633	260.8	0
72	9633	260.9	0
72	9633	261	0
72	9633	261.1	0
72	9633	261.2	0
72	9633	261.3	0
72	10272	261.4	8000
72	10272	261.5	0
72	10272	261.6	0
72	10272	261.7	0
72	10272	261.8	0
72	10272	261.9	0
72	10272	262	0
72	10272	262.1	0
72	10272	262.2	0
72	10272	262.3	0
72	10272	262.4	0
72	10272	262.5	0
72	10272	262.6	0
72	10272	262.7	0
72	10272	262.8	0
72	10272	262.9	0
72	10272	263	0
72	10272	263.1	0
72	10272	263.2	0
72	10272	263.3	0
72	10272	263.4	0
72	10272	263.5	0
72	10272	263.6	0
72	10272	263.7	0
72	10272	263.8	0
72	10272	263.9	0
72	10272	264	0
72	10272	264.1	0
72	10272	264.2	0
72	10272	264.3	0
72	10272	264.4	0
72	10272	264.5	0
72	10272	264.6	0
72	10272	264.7	0
72	10272	264.8	0
72	10272	264.9	0
72	10272	265	0
72	10272	265.1	0
72	10272	265.2	0
72	10272	265.3	0
72	10272	265.4	0
72	10272	265.5	0
72	10272	265.6	0
72	10272	265.7	0
72	10272	265.8	0
72	10272	265.9	0
72	10272	266	0
72	10272	266.1	0
72	10272	266.2	0
72	10272	266.3	0
72	10272	266.4	0
72	10272	266.5	0
72	10272	266.6	0
72	10272	266.7	0
72	10272	266.8	0
72	10272	266.9	0
72	10272	267	0
72	10272	267.1	0
72	10272	267.2	0
72	10272	267.3	0
72	10272	267.4	0
72	10272	267.5	0
72	10272	267.6	0
72	10272	267.7	0
72	10272	267.8	0
72	10272	267.9	0
72	10272	268	0
72	10272	268.1	0
72	10272	268.2	0
72	10272	268.3	0
72	10272	268.4	0
72	10272	268.5	0
72	10272	268.6	0
72	10272	268.7	0
72	10272	268.8	0
72	10272	268.9	0
72	10272	269	0
72	10272	269.1	0
72	10272	269.2	0
72	10272	269.3	0
72	10272	269.4	0
72	10272	269.5	0
72	10272	269.6	0
72	10272	269.7	0
72	10272	269.8	0
72	10272	269.9	0
72	10272	270	0
72	10272	270.1	0
72	10272	270.2	0
72	10272	270.3	0
72	10272	270.4	0
72	10272	270.5	0
72	10272	270.6	0
72	10272	270.7	0
72	10272	270.8	0
72	10272	270.9	0
72	10272	271	0
72	10272	271.1	0
72	10272	271.2	0
72	10272	271.3	0
72	10272	271.4	0
72	10272	271.5	0
72	10272	271.6	0
72	10272	271.7	0
72	10272	271.8	0
72	10272	271.9	0
72	10272	272	0
72	10272	272.1	0
72	10272	272.2	0
72	10272	272.3	0
72	10272	272.4	0
72	10272	272.5	0
72	10272	272.6	0
72	10272	272.7	0
72	10272	272.8	0
72	10272	272.9	0
72	10272	273	0
72	10272	273.1	0
72	10272	273.2	0
72	10272	273.3	0
72	10272	273.4	0
72	10272	273.5	0
72	10272	273.6	0
72	10272	273.7	0
72	10272	273.8	0
72	10272	273.9	0
72	10272	274	0
72	10272	274.1	0
72	10272	274.2	0
72	10272	274.3	0
72	10272	274.4	0
72	10272	274.5	0
72	10272	274.6	0
72	10272	274.7	0
72	10272	274.8	0
72	10272	274.9	0
72	10272	275	0
72	10272	275.1	0
72	10272	275.2	0
72	10272	275.3	0
72	10272	275.4	0
72	10272	275.5	0
72	10272	275.6	0
72	10272	275.7	0
72	10272	275.8	0
72	10272	275.9	0
72	10272	276	0
72	10272	276.1	0
72	10272	276.2	0
72	10272	276.3	0
72	10272	276.4	0
72	10272	276.5	0
72	10272	276.6	0
72	10272	276.7	0
72	10272	276.8	0
72	10656	276.9	8000
72	10656	277	0
72	10656	277.1	0
72	10656	277.2	0
72	10656	277.3	0
72	10656	277.4	0
72	10656	277.5	0
72	10656	277.6	0
72	10656	277.7	0
72	10656	277.8	0
72	10656	277.9	0
72	10656	278	0
72	10656	278.1	0
72	10656	278.2	0
72	10656	278.3	0
72	10656	278.4	0
72	10656	278.5	0
72	10656	278.6	0
72	10656	278.7	0
72	10656	278.8	0
72	10656	278.9	0
72	10656	279	0
72	10656	279.1	0
72	10656	279.2	0
72	10656	279.3	0
72	10656	279.4	0
72	10656	279.5	0
72	10656	279.6	0
72	10656	279.7	0
72	10656	279.8	0
72	10656	279.9	0
72	10656	280	0
72	10656	280.1	0
72	10656	280.2	0
72	10656	280.3	0
72	10656	280.4	0
72	10656	280.5	0
72	10656	280.6	0
72	10656	280.7	0
72	10656	280.8	0
72	10656	280.9	0
72	10656	281	0
72	10656	281.1	0
72	10656	281.2	0
72	10656	281.3	0
72	10656	281.4	0
72	10656	281.5	0
72	10656	281.6	0
72	10656	281.7	0
72	10656	281.8	0
72	10656	281.9	0
72	10656	282	0
72	10656	282.1	0
72	10656	282.2	0
72	10656	282.3	0
72	10656	282.4	0
72	10656	282.5	0
72	10656	282.6	0
72	10656	282.7	0
72	10656	282.8	0
72	10656	282.9	0
72	10656	283	0
72	10656	283.1	0
72	10656	283.2	0
72	10656	283.3	0
72	10656	283.4	0
72	10656	283.5	0
72	10656	283.6	0
72	10656	283.7	0
72	10656	283.8	0
72	10656	283.9	0
72	10656	284	0
72	10656	284.1	0
72	10656	284.2	0
72	10656	284.3	0
72	10656	284.4	0
72	10656	284.5	0
72	10656	284.6	0
72	10656	284.7	0
72	10656	284.8	0
72	10656	284.9	0
72	10656	285	0
72	10656	285.1	0
72	10656	285.2	0
72	10656	285.3	0
72	10656	285.4	0
72	10656	285.5	0
72	10656	285.6	0
72	10656	285.7	0
72	10656	285.8	0
72	10656	285.9	0
72	10656	286	0
72	10656	286.1	0
72	10656	286.2	0
72	10656	286.3	0
72	10656	286.4	0
72	10656	286.5	0
72	10656	286.6	0
72	10656	286.7	0
72	10656	286.8	0
72	10656	286.9	0
72	10656	287	0
72	10656	287.1	0
72	10656	287.2	0
72	10656	287.3	0
72	10656	287.4	0
72	10656	287.5	0
72	10656	287.6	0
72	10656	287.7	0
72	10656	287.8	0
72	10656	287.9	0
72	10656	288	0
72	10704	288.1	8000
72	10704	288.2	0
72	10704	288.3	0
72	10704	288.4	0
72	10704	288.5	0
72	10704	288.6	0
72	10704	288.7	0
72	10704	288.8	0
72	11794	288.9	8000
72	11794	289	0
72	11794	289.1	0
72	11794	289.2	0
72	11794	289.3	0
72	11794	289.4	0
72	11794	289.5	0
72	11794	289.6	0
72	11794	289.7	0
72	11794	289.8	0
72	11794	289.9	0
72	11794	290	0
72	11794	290.1	0
72	11794	290.2	0
72	11794	290.3	0
72	11794	290.4	0
72	11794	290.5	0
72	11794	290.6	0
72	11794	290.7	0
72	11794	290.8	0
72	11794	290.9	0
72	11794	291	0
72	11794	291.1	0
72	11794	291.2	0
72	11794	291.3	0
72	11794	291.4	0
72	11794	291.5	0
72	11794	291.6	0
72	11794	291.7	0
72	11794	291.8	0
72	11794	291.9	0
72	11794	292	0
72	11794	292.1	0
72	11794	292.2	0
72	11794	292.3	0
72	11794	292.4	0
72	11794	292.5	0
72	11794	292.6	0
72	11794	292.7	0
72	11794	292.8	0
72	11794	292.9	0
72	11794	293	0
72	11794	293.1	0
72	11794	293.2	0
72	11794	293.3	0
72	11794	293.4	0
72	11794	293.5	0
72	11794	293.6	0
72	11794	293.7	0
72	11794	293.8	0
72	11794	293.9	0
72	11794	294	0
72	11794	294.1	0
72	11794	294.2	0
72	11794	294.3	0
72	11794	294.4	0
72	11794	294.5	0
72	11794	294.6	0
72	11794	294.7	0
72	11794	294.8	0
72	11794	294.9	0
72	11794	295	0
72	11794	295.1	0
72	11794	295.2	0
72	11794	295.3	0
72	11794	295.4	0
72	11794	295.5	0
72	11794	295.6	0
72	11794	295.7	0
72	11794	295.8	0
72	11794	295.9	0
72	11794	296	0
72	11794	296.1	0
72	11794	296.2	0
72	11794	296.3	0
72	11794	296.4	0
72	11794	296.5	0
72	11794	296.6	0
72	11794	296.7	0
72	11794	296.8	0
72	11794	296.9	0
72	11794	297	0
72	11794	297.1	0
72	11794	297.2	0
72	11794	297.3	0
72	11794	297.4	0
72	11794	297.5	0
72	11794	297.6	0
72	11794	297.7	0
72	11794	297.8	0
72	11794	297.9	0
72	11794	298	0
72	11794	298.1	0
72	11794	298.2	0
72	11794	298.3	0
72	11794	298.4	0
72	11794	298.5	0
72	11794	298.6	0
72	11794	298.7	0
72	11794	298.8	0
72	11794	298.9	0
72	11794	299	0
72	11794	299.1	0
72	11794	299.2	0
72	11794	299.3	0
72	11794	299.4	0
72	11794	299.5	0
72	11794	299.6	0
72	11794	299.7	0
72	11794	299.8	0
72	11794	299.9	0
72	11794	300	0
72	11794	300.1	0
72	11794	300.2	0
72	11794	300.3	0
72	11794	300.4	0
72	11794	300.5	0
72	11794	300.6	0
72	11794	300.7	0
72	11794	300.8	0
72	11794	300.9	0
72	11794	301	0
72	11794	301.1	0
72	11794	301.2	0
72	11794	301.3	0
72	11794	301.4	0
72	11794	301.5	0
72	11794	301.6	0
72	11794	301.7	0
72	11794	301.8	0
72	11794	301.9	0
72	11794	302	0
72	11794	302.1	0
72	11794	302.2	0
72	11794	302.3	0
72	11794	302.4	0
72	11794	302.5	0
72	11794	302.6	0
72	11794	302.7	0
72	11794	302.8	0
72	11794	302.9	0
72	11794	303	0
72	11794	303.1	0
72	11794	303.2	0
72	11794	303.3	0
72	11794	303.4	0
72	11794	303.5	0
72	11794	303.6	0
72	11794	303.7	0
72	11794	303.8	0
72	11794	303.9	0
72	11794	304	0
72	11794	304.1	0
72	11794	304.2	0
72	11794	304.3	0
72	11794	304.4	0
72	11794	304.5	0
72	11794	304.6	0
72	11794	304.7	0
72	11794	304.8	0
72	11794	304.9	0
72	11794	305	0
72	11794	305.1	0
72	11794	305.2	0
72	11794	305.3	0
72	11794	305.4	0
72	11794	305.5	0
72	11794	305.6	0
72	11794	305.7	0
72	11794	305.8	0
72	11794	305.9	0
72	11794	306	0
72	11794	306.1	0
72	11794	306.2	0
72	11794	306.3	0
72	11794	306.4	0
72	11794	306.5	0
72	11794	306.6	0
72	11794	306.7	0
72	11794	306.8	0
72	11794	306.9	0
72	11794	307	0
72	11794	307.1	0
72	11794	307.2	0
72	11794	307.3	0
72	11794	307.4	0
72	11794	307.5	0
72	11794	307.6	0
72	11794	307.7	0
72	11794	307.8	0
72	11794	307.9	0
72	11794	308	0
72	11794	308.1	0
72	11794	308.2	0
72	11794	308.3	0
72	11794	308.4	0
72	11794	308.5	0
72	11794	308.6	0
72	11794	308.7	0
72	11794	308.8	0
72	11794	308.9	0
72	11794	309	0
72	11794	309.1	0
72	11794	309.2	0
72	11794	309.3	0
72	11794	309.4	0
72	11794	309.5	0
72	11794	309.6	0
72	11794	309.7	0
72	11794	309.8	0
72	11794	309.9	0
72	11794	310	0
72	11794	310.1	0
72	11794	310.2	0
72	11794	310.3	0
72	11794	310.4	0
72	11794	310.5	0
72	11794	310.6	0
72	11794	310.7	0
72	11794	310.8	0
72	11794	310.9	0
72	11794	311	0
72	11794	311.1	0
72	11794	311.2	0
72	11794	311.3	0
72	11794	311.4	0
72	11794	311.5	0
72	11794	311.6	0
72	11794	311.7	0
72	11794	311.8	0
72	11794	311.9	0
72	11794	312	0
72	11794	312.1	0
72	11794	312.2	0
72	11794	312.3	0
72	11794	312.4	0
72	11794	312.5	0
72	11794	312.6	0
72	11794	312.7	0
72	11794	312.8	0
72	11794	312.9	0
72	11794	313	0
72	11794	313.1	0
72	11794	313.2	0
72	11794	313.3	0
72	11794	313.4	0
72	11794	313.5	0
72	11794	313.6	0
72	11794	313.7	0
72	11794	313.8	0
72	11794	313.9	0
72	11794	314	0
72	11794	314.1	0
72	11794	314.2	0
72	11794	314.3	0
72	11794	314.4	0
72	11794	314.5	0
72	11794	314.6	0
72	11794	314.7	0
72	11794	314.8	0
72	11794	314.9	0
72	11794	315	0
72	11794	315.1	0
72	11794	315.2	0
72	11794	315.3	0
72	11794	315.4	0
72	11794	315.5	0
72	11794	315.6	0
72	11794	315.7	0
72	11794	315.8	0
72	11794	315.9	0
72	11794	316	0
72	11794	316.1	0
72	11794	316.2	0
72	12090	316.3	8000
72	12090	316.4	0
72	12090	316.5	0
72	12090	316.6	0
72	12090	316.7	0
72	12090	316.8	0
72	12090	316.9	0
72	12090	317	0
72	12090	317.1	0
72	12090	317.2	0
72	12090	317.3	0
72	12090	317.4	0
72	12090	317.5	0
72	12090	317.6	0
72	12090	317.7	0
72	12090	317.8	0
72	12090	317.9	0
72	12090	318	0
72	12090	318.1	0
72	12090	318.2	0
72	12090	318.3	0
72	12090	318.4	0
72	12090	318.5	0
72	12090	318.6	0
72	12090	318.7	0
72	12090	318.8	0
72	12090	318.9	0
72	12090	319	0
72	12090	319.1	0
72	12090	319.2	0
72	12090	319.3	0
72	12090	319.4	0
72	12090	319.5	0
72	12090	319.6	0
72	12090	319.7	0
72	12090	319.8	0
72	12090	319.9	0
72	12090	320	0
72	12090	320.1	0
72	12090	320.2	0
72	12090	320.3	0
72	12090	320.4	0
72	12090	320.5	0
72	12090	320.6	0
72	12090	320.7	0
72	12090	320.8	0
72	12090	320.9	0
72	12090	321	0
72	12090	321.1	0
72	12090	321.2	0
72	12090	321.3	0
72	12090	321.4	0
72	12090	321.5	0
72	12090	321.6	0
72	12090	321.7	0
72	12090	321.8	0
72	12090	321.9	0
72	12090	322	0
72	12090	322.1	0
72	12090	322.2	0
72	12090	322.3	0
72	12090	322.4	0
72	12090	322.5	0
72	12090	322.6	0
72	12090	322.7	0
72	12090	322.8	0
72	12090	322.9	0
72	12090	323	0
72	12444	323.1	8000
72	12444	323.2	0
72	12444	323.3	0
72	12444	323.4	0
72	12444	323.5	0
72	12444	323.6	0
72	12444	323.7	0
72	12444	323.8	0
72	12444	323.9	0
72	12444	324	0
72	12444	324.1	0
72	12444	324.2	0
72	12444	324.3	0
72	12444	324.4	0
72	12444	324.5	0
72	12444	324.6	0
72	12444	324.7	0
72	12444	324.8	0
72	12444	324.9	0
72	12444	325	0
72	12444	325.1	0
72	12444	325.2	0
72	12444	325.3	0
72	12444	325.4	0
72	12444	325.5	0
72	12444	325.6	0
72	12444	325.7	0
72	12444	325.8	0
72	12444	325.9	0
72	12444	326	0
72	12444	326.1	0
72	12444	326.2	0
72	12444	326.3	0
72	12444	326.4	0
72	12444	326.5	0
72	12444	326.6	0
72	12444	326.7	0
72	12444	326.8	0
72	12444	326.9	0
72	12444	327	0
72	12444	327.1	0
72	12444	327.2	0
72	12444	327.3	0
72	12444	327.4	0
72	12444	327.5	0
72	12444	327.6	0
72	12444	327.7	0
72	12444	327.8	0
72	12444	327.9	0
72	12444	328	0
72	12444	328.1	0
72	12444	328.2	0
72	12444	328.3	0
72	12444	328.4	0
72	12444	328.5	0
72	12444	328.6	0
72	12444	328.7	0
72	12444	328.8	0
72	12444	328.9	0
72	12444	329	0
72	12444	329.1	0
72	12444	329.2	0
72	12444	329.3	0
72	12444	329.4	0
72	12444	329.5	0
72	12444	329.6	0
72	12444	329.7	0
72	12444	329.8	0
72	12444	329.9	0
72	12444	330	0
72	12444	330.1	0
72	12444	330.2	0
72	12444	330.3	0
72	12444	330.4	0
72	12444	330.5	0
72	12444	330.6	0
72	12444	330.7	0
72	12444	330.8	0
72	12444	330.9	0
72	12444	331	0
72	12444	331.1	0
72	12444	331.2	0
72	12444	331.3	0
72	12444	331.4	0
72	12444	331.5	0
72	12444	331.6	0
72	12444	331.7	0
72	12444	331.8	0
72	12444	331.9	0
72	12444	332	0
72	12444	332.1	0
72	12444	332.2	0
72	12444	332.3	0
72	12444	332.4	0
72	12444	332.5	0
72	12444	332.6	0
72	12444	332.7	0
72	12444	332.8	0
72	12444	332.9	0
72	12444	333	0
72	12444	333.1	0
72	12444	333.2	0
72	12444	333.3	0
72	12444	333.4	0
72	12444	333.5	0
72	12444	333.6	0
72	12444	333.7	0
72	12444	333.8	0
72	12556	333.9	8000
72	12556	334	0
72	12556	334.1	0
72	12556	334.2	0
72	12556	334.3	0
72	12556	334.4	0
72	12556	334.5	0
72	12556	334.6	0
72	12556	334.7	0
72	12556	334.8	0
72	12556	334.9	0
72	12556	335	0
72	12556	335.1	0
72	12556	335.2	0
72	12556	335.3	0
72	12556	335.4	0
72	12556	335.5	0
72	12556	335.6	0
72	12556	335.7	0
72	12556	335.8	0
72	12556	335.9	0
72	12556	336	0
72	12556	336.1	0
72	12556	336.2	0
72	12556	336.3	0
72	12556	336.4	0
72	12556	336.5	0
72	12556	336.6	0
72	12556	336.7	0
72	12693	336.8	8000
72	12693	336.9	0
72	12693	337	0
72	12693	337.1	0
72	12693	337.2	0
72	12693	337.3	0
72	12693	337.4	0
72	12693	337.5	0
72	12693	337.6	0
72	12693	337.7	0
72	12693	337.8	0
72	12693	337.9	0
72	12693	338	0
72	12693	338.1	0
72	12693	338.2	0
72	12693	338.3	0
72	12693	338.4	0
72	12693	338.5	0
72	12693	338.6	0
72	12693	338.7	0
72	12693	338.8	0
72	12693	338.9	0
72	12693	339	0
72	12693	339.1	0
72	12693	339.2	0
72	12693	339.3	0
72	12693	339.4	0
72	12693	339.5	0
72	12693	339.6	0
72	12693	339.7	0
72	12693	339.8	0
72	12693	339.9	0
72	12693	340	0
72	12693	340.1	0
72	13091	340.2	8000
72	13091	340.3	0
72	13091	340.4	0
72	13091	340.5	0
72	13091	340.6	0
72	13091	340.7	0
72	13091	340.8	0
72	13091	340.9	0
72	13091	341	0
72	13091	341.1	0
72	13091	341.2	0
72	13091	341.3	0
72	13091	341.4	0
72	13091	341.5	0
72	13091	341.6	0
72	13091	341.7	0
72	13091	341.8	0
72	13091	341.9	0
72	13091	342	0
72	13091	342.1	0
72	13091	342.2	0
72	13091	342.3	0
72	13091	342.4	0
72	13091	342.5	0
72	13091	342.6	0
72	13091	342.7	0
72	13091	342.8	0
72	13091	342.9	0
72	13091	343	0
72	13091	343.1	0
72	13091	343.2	0
72	13091	343.3	0
72	13091	343.4	0
72	13091	343.5	0
72	13091	343.6	0
72	13091	343.7	0
72	13091	343.8	0
[...]
124	135727	3499.1	0
124	135727	3499.2	0
124	135727	3499.3	0
124	135727	3499.4	0
124	135727	3499.5	0
124	135727	3499.6	0
124	135727	3499.7	0
124	135727	3499.8	0
124	135727	3499.9	0
124	135727	3500	0
124	135727	3500.1	0
124	135727	3500.2	0
124	135727	3500.3	0
124	135727	3500.4	0
124	135727	3500.5	0
124	135727	3500.6	0
124	135727	3500.7	0
124	135727	3500.8	0
124	135727	3500.9	0
124	135727	3501	0
124	135727	3501.1	0
124	135727	3501.2	0
124	135727	3501.3	0
124	135727	3501.4	0
124	135727	3501.5	0
124	135727	3501.6	0
124	135727	3501.7	0
124	135727	3501.8	0
124	135727	3501.9	0
124	135727	3502	0
124	135727	3502.1	0
124	135727	3502.2	0
124	135727	3502.3	0
124	135727	3502.4	0
124	135727	3502.5	0
124	135727	3502.6	0
124	135727	3502.7	0
124	135727	3502.8	0
124	135727	3502.9	0
124	135727	3503	0
124	135727	3503.1	0
124	135727	3503.2	0
124	135727	3503.3	0
124	135727	3503.4	0
124	135727	3503.5	0
124	135727	3503.6	0
124	135727	3503.7	0
124	135727	3503.8	0
124	135727	3503.9	0
124	135727	3504	0
124	135727	3504.1	0
124	135727	3504.2	0
124	135727	3504.3	0
124	135727	3504.4	0
124	135727	3504.5	0
124	135727	3504.6	0
124	135727	3504.7	0
124	135727	3504.8	0
124	135727	3504.9	0
124	135727	3505	0
124	135727	3505.1	0
124	135727	3505.2	0
124	135727	3505.3	0
124	135727	3505.4	0
124	135727	3505.5	0
124	135727	3505.6	0
124	135727	3505.7	0
124	135727	3505.8	0
124	135727	3505.9	0
124	135727	3506	0
124	135727	3506.1	0
124	135727	3506.2	0
124	135727	3506.3	0
124	135727	3506.4	0
124	135727	3506.5	0
124	135727	3506.6	0
124	135727	3506.7	0
124	135727	3506.8	0
124	135727	3506.9	0
124	135727	3507	0
124	135727	3507.1	0
124	135727	3507.2	0
124	135727	3507.3	0
124	135727	3507.4	0
124	135727	3507.5	0
124	135727	3507.6	0
124	135727	3507.7	0
124	135727	3507.8	0
124	135727	3507.9	0
124	135727	3508	0
124	135727	3508.1	0
124	135727	3508.2	0
124	135727	3508.3	0
124	135727	3508.4	0
124	135727	3508.5	0
124	135727	3508.6	0
124	135727	3508.7	0
124	135727	3508.8	0
124	135727	3508.9	0
124	135727	3509	0
124	135727	3509.1	0
124	135727	3509.2	0
124	135727	3509.3	0
124	135727	3509.4	0
124	135727	3509.5	0
124	135727	3509.6	0
124	135727	3509.7	0
124	135727	3509.8	0
124	135727	3509.9	0
124	135727	3510	0
124	135727	3510.1	0
124	135727	3510.2	0
124	135727	3510.3	0
124	135727	3510.4	0
124	135727	3510.5	0
124	135727	3510.6	0
124	135727	3510.7	0
124	135727	3510.8	0
124	135727	3510.9	0
124	135727	3511	0
124	135727	3511.1	0
124	135727	3511.2	0
124	135727	3511.3	0
124	135727	3511.4	0
124	135727	3511.5	0
124	135727	3511.6	0
124	135727	3511.7	0
124	135727	3511.8	0
124	135727	3511.9	0
124	135727	3512	0
124	135727	3512.1	0
124	135727	3512.2	0
124	135727	3512.3	0
124	135727	3512.4	0
124	135727	3512.5	0
124	135727	3512.6	0
124	135727	3512.7	0
124	135727	3512.8	0
124	135727	3512.9	0
124	135727	3513	0
124	135727	3513.1	0
124	135727	3513.2	0
124	135727	3513.3	0
124	135727	3513.4	0
124	135727	3513.5	0
124	135727	3513.6	0
124	135727	3513.7	0
124	135727	3513.8	0
124	135727	3513.9	0
124	135727	3514	0
124	135727	3514.1	0
124	135727	3514.2	0
124	135727	3514.3	0
124	135727	3514.4	0
124	135727	3514.5	0
124	135727	3514.6	0
124	135727	3514.7	0
124	135727	3514.8	0
124	135727	3514.9	0
124	135727	3515	0
124	135727	3515.1	0
124	135727	3515.2	0
124	135727	3515.3	0
124	135727	3515.4	0
124	135727	3515.5	0
124	135727	3515.6	0
124	135727	3515.7	0
124	135727	3515.8	0
124	135727	3515.9	0
124	135727	3516	0
124	135727	3516.1	0
124	135727	3516.2	0
124	135727	3516.3	0
124	135727	3516.4	0
124	135727	3516.5	0
124	135727	3516.6	0
124	135727	3516.7	0
124	135727	3516.8	0
124	135727	3516.9	0
124	135727	3517	0
124	135727	3517.1	0
124	135727	3517.2	0
124	135727	3517.3	0
124	135727	3517.4	0
124	135727	3517.5	0
124	135727	3517.6	0
124	135727	3517.7	0
124	135727	3517.8	0
124	135727	3517.9	0
124	135727	3518	0
124	135727	3518.1	0
124	135727	3518.2	0
124	135727	3518.3	0
124	135727	3518.4	0
124	135727	3518.5	0
124	135727	3518.6	0
124	135727	3518.7	0
124	135727	3518.8	0
124	135727	3518.9	0
124	135727	3519	0
124	135727	3519.1	0
124	135727	3519.2	0
124	135727	3519.3	0
124	135727	3519.4	0
124	135727	3519.5	0
124	135727	3519.6	0
124	135727	3519.7	0
124	135727	3519.8	0
124	135727	3519.9	0
124	135727	3520	0
124	135727	3520.1	0
124	135727	3520.2	0
124	135727	3520.3	0
124	135727	3520.4	0
124	135727	3520.5	0
124	135727	3520.6	0
124	135727	3520.7	0
124	135727	3520.8	0
124	135727	3520.9	0
124	135727	3521	0
124	135727	3521.1	0
124	135727	3521.2	0
124	135727	3521.3	0
124	135727	3521.4	0
124	135727	3521.5	0
124	135727	3521.6	0
124	135727	3521.7	0
124	135727	3521.8	0
124	135727	3521.9	0
124	135727	3522	0
124	135727	3522.1	0
124	135727	3522.2	0
124	135727	3522.3	0
124	135727	3522.4	0
124	135727	3522.5	0
124	135727	3522.6	0
124	135727	3522.7	0
124	135727	3522.8	0
124	135727	3522.9	0
124	135727	3523	0
124	135727	3523.1	0
124	135727	3523.2	0
124	135727	3523.3	0
124	135727	3523.4	0
124	135727	3523.5	0
124	135727	3523.6	0
124	135727	3523.7	0
124	135727	3523.8	0
124	135727	3523.9	0
124	135727	3524	0
124	135727	3524.1	0
124	135727	3524.2	0
124	135727	3524.3	0
124	135727	3524.4	0
124	135727	3524.5	0
124	135727	3524.6	0
124	135727	3524.7	0
124	135727	3524.8	0
124	135727	3524.9	0
124	135727	3525	0
124	135727	3525.1	0
124	135727	3525.2	0
124	135727	3525.3	0
124	135727	3525.4	0
124	135727	3525.5	0
124	135727	3525.6	0
124	135727	3525.7	0
124	135727	3525.8	0
124	135727	3525.9	0
124	135727	3526	0
124	135727	3526.1	0
124	135727	3526.2	0
124	135727	3526.3	0
124	135727	3526.4	0
124	135727	3526.5	0
124	135727	3526.6	0
124	135727	3526.7	0
124	135727	3526.8	0
124	135727	3526.9	0
124	135727	3527	0
124	135727	3527.1	0
124	135727	3527.2	0
124	135727	3527.3	0
124	135727	3527.4	0
124	135727	3527.5	0
124	135727	3527.6	0
124	135727	3527.7	0
124	135727	3527.8	0
124	135727	3527.9	0
124	135727	3528	0
124	135727	3528.1	0
124	135727	3528.2	0
124	135727	3528.3	0
124	135727	3528.4	0
124	135727	3528.5	0
124	135727	3528.6	0
124	135727	3528.7	0
124	135727	3528.8	0
124	135727	3528.9	0
124	135727	3529	0
124	135727	3529.1	0
124	135727	3529.2	0
124	135727	3529.3	0
124	135727	3529.4	0
124	135727	3529.5	0
124	135727	3529.6	0
124	135727	3529.7	0
124	135727	3529.8	0
124	135727	3529.9	0
124	135727	3530	0
124	135727	3530.1	0
124	135727	3530.2	0
124	135727	3530.3	0
124	135727	3530.4	0
124	135727	3530.5	0
124	135727	3530.6	0
124	135727	3530.7	0
124	135727	3530.8	0
124	135727	3530.9	0
124	135727	3531	0
124	135727	3531.1	0
124	135727	3531.2	0
124	135727	3531.3	0
124	135727	3531.4	0
124	135727	3531.5	0
124	135727	3531.6	0
124	135727	3531.7	0
124	135727	3531.8	0
124	135727	3531.9	0
124	135727	3532	0
124	135727	3532.1	0
124	135727	3532.2	0
124	135727	3532.3	0
124	135727	3532.4	0
124	135727	3532.5	0
124	135727	3532.6	0
124	135727	3532.7	0
124	135727	3532.8	0
124	135727	3532.9	0
124	135727	3533	0
124	135727	3533.1	0
124	135727	3533.2	0
124	135727	3533.3	0
124	135727	3533.4	0
124	135727	3533.5	0
124	135727	3533.6	0
124	135727	3533.7	0
124	135727	3533.8	0
124	135727	3533.9	0
124	135727	3534	0
124	135727	3534.1	0
124	135727	3534.2	0
124	135727	3534.3	0
124	135727	3534.4	0
124	135727	3534.5	0
124	135727	3534.6	0
124	135727	3534.7	0
124	135727	3534.8	0
124	135727	3534.9	0
124	135727	3535	0
124	135727	3535.1	0
124	135727	3535.2	0
124	135727	3535.3	0
124	135727	3535.4	0
124	135727	3535.5	0
124	135727	3535.6	0
124	135727	3535.7	0
124	135727	3535.8	0
124	135727	3535.9	0
124	135727	3536	0
124	135727	3536.1	0
124	135727	3536.2	0
124	135727	3536.3	0
124	135727	3536.4	0
124	135727	3536.5	0
124	135727	3536.6	0
124	135727	3536.7	0
124	135727	3536.8	0
124	135727	3536.9	0
124	135727	3537	0
124	135727	3537.1	0
124	135727	3537.2	0
124	135727	3537.3	0
124	135727	3537.4	0
124	135727	3537.5	0
124	135727	3537.6	0
124	135727	3537.7	0
124	135727	3537.8	0
124	135727	3537.9	0
124	135727	3538	0
124	135727	3538.1	0
124	135727	3538.2	0
124	135727	3538.3	0
124	135727	3538.4	0
124	135727	3538.5	0
124	135727	3538.6	0
124	135727	3538.7	0
124	135727	3538.8	0
124	135727	3538.9	0
124	135727	3539	0
124	135727	3539.1	0
124	135727	3539.2	0
124	135727	3539.3	0
124	135727	3539.4	0
124	135727	3539.5	0
124	135727	3539.6	0
124	135727	3539.7	0
124	135727	3539.8	0
124	135727	3539.9	0
124	135727	3540	0
124	135727	3540.1	0
124	135727	3540.2	0
124	135727	3540.3	0
124	135727	3540.4	0
124	135727	3540.5	0
124	135727	3540.6	0
124	135727	3540.7	0
124	135727	3540.8	0
124	135727	3540.9	0
124	135727	3541	0
124	135727	3541.1	0
124	135727	3541.2	0
124	135727	3541.3	0
124	135727	3541.4	0
124	135727	3541.5	0
124	135727	3541.6	0
124	135727	3541.7	0
124	135727	3541.8	0
124	135727	3541.9	0
124	135727	3542	0
124	135727	3542.1	0
124	135727	3542.2	0
124	135727	3542.3	0
124	135727	3542.4	0
124	135727	3542.5	0
124	135727	3542.6	0
124	135727	3542.7	0
124	135727	3542.8	0
124	135727	3542.9	0
124	135727	3543	0
124	135727	3543.1	0
124	135727	3543.2	0
124	135727	3543.3	0
124	135727	3543.4	0
124	135727	3543.5	0
124	135727	3543.6	0
124	135727	3543.7	0
124	135727	3543.8	0
124	135727	3543.9	0
124	135727	3544	0
124	135727	3544.1	0
124	135727	3544.2	0
124	135727	3544.3	0
124	135727	3544.4	0
124	135727	3544.5	0
124	135727	3544.6	0
124	135727	3544.7	0
124	135727	3544.8	0
124	135727	3544.9	0
124	135727	3545	0
124	135727	3545.1	0
124	135727	3545.2	0
124	135727	3545.3	0
124	135727	3545.4	0
124	135727	3545.5	0
124	135727	3545.6	0
124	135727	3545.7	0
124	135727	3545.8	0
124	135727	3545.9	0
124	135727	3546	0
124	135727	3546.1	0
124	135727	3546.2	0
124	135727	3546.3	0
124	135727	3546.4	0
124	135727	3546.5	0
124	135727	3546.6	0
124	135727	3546.7	0
124	135727	3546.8	0
124	135727	3546.9	0
124	135727	3547	0
124	135727	3547.1	0
124	135727	3547.2	0
124	135727	3547.3	0
124	135727	3547.4	0
124	135727	3547.5	0
124	135727	3547.6	0
124	135727	3547.7	0
124	135727	3547.8	0
124	135727	3547.9	0
124	135727	3548	0
124	135727	3548.1	0
124	135727	3548.2	0
124	135727	3548.3	0
124	135727	3548.4	0
124	135727	3548.5	0
124	135727	3548.6	0
124	135727	3548.7	0
124	135727	3548.8	0
124	135727	3548.9	0
124	135727	3549	0
124	135727	3549.1	0
124	135727	3549.2	0
124	135727	3549.3	0
124	135727	3549.4	0
124	135727	3549.5	0
124	135727	3549.6	0
124	135727	3549.7	0
124	135727	3549.8	0
124	135727	3549.9	0
124	135727	3550	0
124	135727	3550.1	0
124	135727	3550.2	0
124	135727	3550.3	0
124	135727	3550.4	0
124	135727	3550.5	0
124	135727	3550.6	0
124	135727	3550.7	0
124	135727	3550.8	0
124	135727	3550.9	0
124	135727	3551	0
124	135727	3551.1	0
124	135727	3551.2	0
124	135727	3551.3	0
124	135727	3551.4	0
124	135727	3551.5	0
124	135727	3551.6	0
124	135727	3551.7	0
124	135727	3551.8	0
124	135727	3551.9	0
124	135727	3552	0
124	135727	3552.1	0
124	135727	3552.2	0
124	135727	3552.3	0
124	135727	3552.4	0
124	135727	3552.5	0
124	135727	3552.6	0
124	135727	3552.7	0
124	135727	3552.8	0
124	135727	3552.9	0
124	135727	3553	0
124	135727	3553.1	0
124	135727	3553.2	0
124	135727	3553.3	0
124	135727	3553.4	0
124	135727	3553.5	0
124	135727	3553.6	0
124	135727	3553.7	0
124	135727	3553.8	0
124	135727	3553.9	0
124	135727	3554	0
124	135727	3554.1	0
124	135727	3554.2	0
124	135727	3554.3	0
124	135727	3554.4	0
124	135727	3554.5	0
124	135727	3554.6	0
124	135727	3554.7	0
124	135727	3554.8	0
124	135727	3554.9	0
124	135727	3555	0
124	135727	3555.1	0
124	135727	3555.2	0
124	135727	3555.3	0
124	135727	3555.4	0
124	135727	3555.5	0
124	135727	3555.6	0
124	135727	3555.7	0
124	135727	3555.8	0
124	135727	3555.9	0
124	135727	3556	0
124	135727	3556.1	0
124	135727	3556.2	0
124	135727	3556.3	0
124	135727	3556.4	0
124	135727	3556.5	0
124	135727	3556.6	0
124	135727	3556.7	0
124	135727	3556.8	0
124	135727	3556.9	0
124	135727	3557	0
124	135727	3557.1	0
124	135727	3557.2	0
124	135727	3557.3	0
124	135727	3557.4	0
124	135727	3557.5	0
124	135727	3557.6	0
124	135727	3557.7	0
124	135727	3557.8	0
124	135727	3557.9	0
124	135727	3558	0
124	135727	3558.1	0
124	135727	3558.2	0
124	135727	3558.3	0
124	135727	3558.4	0
124	135727	3558.5	0
124	135727	3558.6	0
124	135727	3558.7	0
124	135727	3558.8	0
124	135727	3558.9	0
124	135727	3559	0
124	135727	3559.1	0
124	135727	3559.2	0
124	135727	3559.3	0
124	135727	3559.4	0
124	135727	3559.5	0
124	135727	3559.6	0
124	135727	3559.7	0
124	135727	3559.8	0
124	135727	3559.9	0
124	135727	3560	0
124	135727	3560.1	0
124	135727	3560.2	0
124	135727	3560.3	0
124	135727	3560.4	0
124	135727	3560.5	0
124	135727	3560.6	0
124	135727	3560.7	0
124	135727	3560.8	0
124	135727	3560.9	0
124	135727	3561	0
124	135727	3561.1	0
124	135727	3561.2	0
124	135727	3561.3	0
124	135727	3561.4	0
124	135727	3561.5	0
124	135727	3561.6	0
124	135727	3561.7	0
124	135727	3561.8	0
124	135727	3561.9	0
124	135727	3562	0
124	135727	3562.1	0
124	135727	3562.2	0
124	135727	3562.3	0
124	135727	3562.4	0
124	135727	3562.5	0
124	135727	3562.6	0
124	135727	3562.7	0
124	135727	3562.8	0
124	135727	3562.9	0
124	135727	3563	0
124	135727	3563.1	0
124	135727	3563.2	0
124	135727	3563.3	0
124	135727	3563.4	0
124	135727	3563.5	0
124	135727	3563.6	0
124	135727	3563.7	0
124	135727	3563.8	0
124	135727	3563.9	0
124	135727	3564	0
124	135727	3564.1	0
124	135727	3564.2	0
124	135727	3564.3	0
124	135727	3564.4	0
124	135727	3564.5	0
124	135727	3564.6	0
124	135727	3564.7	0
124	135727	3564.8	0
124	135727	3564.9	0
124	135727	3565	0
124	135727	3565.1	0
124	135727	3565.2	0
124	135727	3565.3	0
124	135727	3565.4	0
124	135727	3565.5	0
124	135727	3565.6	0
124	135727	3565.7	0
124	135727	3565.8	0
124	135727	3565.9	0
124	135727	3566	0
124	135727	3566.1	0
124	135727	3566.2	0
124	135727	3566.3	0
124	135727	3566.4	0
124	135727	3566.5	0
124	135727	3566.6	0
124	135727	3566.7	0
124	135727	3566.8	0
124	135727	3566.9	0
124	135727	3567	0
124	135727	3567.1	0
124	135727	3567.2	0
124	135727	3567.3	0
124	135727	3567.4	0
124	135727	3567.5	0
124	135727	3567.6	0
124	135727	3567.7	0
124	135727	3567.8	0
124	135727	3567.9	0
124	135727	3568	0
124	135727	3568.1	0
124	135727	3568.2	0
124	135727	3568.3	0
124	135727	3568.4	0
124	135727	3568.5	0
124	135727	3568.6	0
124	135727	3568.7	0
124	135727	3568.8	0
124	135727	3568.9	0
124	135727	3569	0
124	135727	3569.1	0
124	135727	3569.2	0
124	135727	3569.3	0
124	135727	3569.4	0
124	135727	3569.5	0
124	135727	3569.6	0
124	135727	3569.7	0
124	135727	3569.8	0
124	135727	3569.9	0
124	135727	3570	0
124	135727	3570.1	0
124	135727	3570.2	0
124	135727	3570.3	0
124	135727	3570.4	0
124	135727	3570.5	0
124	135727	3570.6	0
124	135727	3570.7	0
124	135727	3570.8	0
124	135727	3570.9	0
124	135727	3571	0
124	135727	3571.1	0
124	135727	3571.2	0
124	135727	3571.3	0
124	135727	3571.4	0
124	135727	3571.5	0
124	135727	3571.6	0
124	135727	3571.7	0
124	135727	3571.8	0
124	135727	3571.9	0
124	135727	3572	0
124	135727	3572.1	0
124	135727	3572.2	0
124	135727	3572.3	0
124	135727	3572.4	0
124	135727	3572.5	0
124	135727	3572.6	0
124	135727	3572.7	0
124	135727	3572.8	0
124	135727	3572.9	0
124	135727	3573	0
124	135727	3573.1	0
124	135727	3573.2	0
124	135727	3573.3	0
124	135727	3573.4	0
124	135727	3573.5	0
124	135727	3573.6	0
124	135727	3573.7	0
124	135727	3573.8	0
124	135727	3573.9	0
124	135727	3574	0
124	135727	3574.1	0
124	135727	3574.2	0
124	135727	3574.3	0
124	135727	3574.4	0
124	135727	3574.5	0
124	135727	3574.6	0
124	135727	3574.7	0
124	135727	3574.8	0
124	135727	3574.9	0
124	135727	3575	0
124	135727	3575.1	0
124	135727	3575.2	0
124	135727	3575.3	0
124	135727	3575.4	0
124	135727	3575.5	0
124	135727	3575.6	0
124	135727	3575.7	0
124	135727	3575.8	0
124	135727	3575.9	0
124	135727	3576	0
124	135727	3576.1	0
124	135727	3576.2	0
124	135727	3576.3	0
124	135727	3576.4	0
124	135727	3576.5	0
124	135727	3576.6	0
124	135727	3576.7	0
124	135727	3576.8	0
124	135727	3576.9	0
124	135727	3577	0
124	135727	3577.1	0
124	135727	3577.2	0
124	135727	3577.3	0
124	135727	3577.4	0
124	135727	3577.5	0
124	135727	3577.6	0
124	135727	3577.7	0
124	135727	3577.8	0
124	135727	3577.9	0
124	135727	3578	0
124	135727	3578.1	0
124	135727	3578.2	0
124	135727	3578.3	0
124	135727	3578.4	0
124	135727	3578.5	0
124	135727	3578.6	0
124	135727	3578.7	0
124	135727	3578.8	0
124	135727	3578.9	0
124	135727	3579	0
124	135727	3579.1	0
124	135727	3579.2	0
124	135727	3579.3	0
124	135727	3579.4	0
124	135727	3579.5	0
124	135727	3579.6	0
124	135727	3579.7	0
124	135727	3579.8	0
124	135727	3579.9	0
124	135727	3580	0
124	135727	3580.1	0
124	135727	3580.2	0
124	135727	3580.3	0
124	135727	3580.4	0
124	135727	3580.5	0
124	135727	3580.6	0
124	135727	3580.7	0
124	135727	3580.8	0
124	135727	3580.9	0
124	135727	3581	0
124	135727	3581.1	0
124	135727	3581.2	0
124	135727	3581.3	0
124	135727	3581.4	0
124	135727	3581.5	0
124	135727	3581.6	0
124	135727	3581.7	0
124	135727	3581.8	0
124	135727	3581.9	0
124	135727	3582	0
124	135727	3582.1	0
124	135727	3582.2	0
124	135727	3582.3	0
124	135727	3582.4	0
124	135727	3582.5	0
124	135727	3582.6	0
124	135727	3582.7	0
124	135727	3582.8	0
124	135727	3582.9	0
124	135727	3583	0
124	135727	3583.1	0
124	135727	3583.2	0
124	135727	3583.3	0
124	135727	3583.4	0
124	135727	3583.5	0
124	135727	3583.6	0
124	135727	3583.7	0
124	135727	3583.8	0
124	135727	3583.9	0
124	135727	3584	0
124	135727	3584.1	0
124	135727	3584.2	0
124	135727	3584.3	0
124	135727	3584.4	0
124	135727	3584.5	0
124	135727	3584.6	0
124	135727	3584.7	0
124	135727	3584.8	0
124	135727	3584.9	0
124	135727	3585	0
124	135727	3585.1	0
124	135727	3585.2	0
124	135727	3585.3	0
124	135727	3585.4	0
124	135727	3585.5	0
124	135727	3585.6	0
124	135727	3585.7	0
124	135727	3585.8	0
124	135727	3585.9	0
124	135727	3586	0
124	135727	3586.1	0
124	135727	3586.2	0
124	135727	3586.3	0
124	135727	3586.4	0
124	135727	3586.5	0
124	135727	3586.6	0
124	135727	3586.7	0
124	135727	3586.8	0
124	135727	3586.9	0
124	135727	3587	0
124	135727	3587.1	0
124	135727	3587.2	0
124	135727	3587.3	0
124	135727	3587.4	0
124	135727	3587.5	0
124	135727	3587.6	0
124	135727	3587.7	0
124	135727	3587.8	0
124	135727	3587.9	0
124	135727	3588	0
124	135727	3588.1	0
124	135727	3588.2	0
124	135727	3588.3	0
124	135727	3588.4	0
124	135727	3588.5	0
124	135727	3588.6	0
124	135727	3588.7	0
124	135727	3588.8	0
124	135727	3588.9	0
124	135727	3589	0
124	135727	3589.1	0
124	135727	3589.2	0
124	135727	3589.3	0
124	135727	3589.4	0
124	135727	3589.5	0
124	135727	3589.6	0
124	135727	3589.7	0
124	135727	3589.8	0
124	135727	3589.9	0
124	135727	3590	0
124	135727	3590.1	0
124	135727	3590.2	0
124	135727	3590.3	0
124	135727	3590.4	0
124	135727	3590.5	0
124	135727	3590.6	0
124	135727	3590.7	0
124	135727	3590.8	0
124	135727	3590.9	0
124	135727	3591	0
124	135727	3591.1	0
124	135727	3591.2	0
124	135727	3591.3	0
124	135727	3591.4	0
124	135727	3591.5	0
124	135727	3591.6	0
124	135727	3591.7	0
124	135727	3591.8	0
124	135727	3591.9	0
124	135727	3592	0
124	135727	3592.1	0
124	135727	3592.2	0
124	135727	3592.3	0
124	135727	3592.4	0
124	135727	3592.5	0
124	135727	3592.6	0
124	135727	3592.7	0
124	135727	3592.8	0
124	135727	3592.9	0
124	135727	3593	0
124	135727	3593.1	0
124	135727	3593.2	0
124	135727	3593.3	0
124	135727	3593.4	0
124	135727	3593.5	0
124	135727	3593.6	0
124	135727	3593.7	0
124	135727	3593.8	0
124	135727	3593.9	0
124	135727	3594	0
124	135727	3594.1	0
124	135727	3594.2	0
124	135727	3594.3	0
124	135727	3594.4	0
124	135727	3594.5	0
124	135727	3594.6	0
124	135727	3594.7	0
124	135727	3594.8	0
124	135727	3594.9	0
124	135727	3595	0
124	135727	3595.1	0
124	135727	3595.2	0
124	135727	3595.3	0
124	135727	3595.4	0
124	135727	3595.5	0
124	135727	3595.6	0
124	135727	3595.7	0
124	135727	3595.8	0
124	135727	3595.9	0
124	135727	3596	0
124	135727	3596.1	0
124	135727	3596.2	0
124	135727	3596.3	0
124	135727	3596.4	0
124	135727	3596.5	0
124	135727	3596.6	0
124	135727	3596.7	0
124	135727	3596.8	0
124	135727	3596.9	0
124	135727	3597	0
124	135727	3597.1	0
124	135727	3597.2	0
124	135727	3597.3	0
124	135727	3597.4	0
124	135727	3597.5	0
124	135727	3597.6	0
124	135727	3597.7	0
124	135727	3597.8	0
124	135727	3597.9	0
124	135727	3598	0
124	135727	3598.1	0
124	135727	3598.2	0
124	135727	3598.3	0
124	135727	3598.4	0
124	135727	3598.5	0
124	135727	3598.6	0
124	135727	3598.7	0
124	135727	3598.8	0
124	135727	3598.9	0
124	135727	3599	0
124	135727	3599.1	0
124	135727	3599.2	0
124	135727	3599.3	0
124	135727	3599.4	0
124	135727	3599.5	0
124	135727	3599.6	0
124	135727	3599.7	0
124	135727	3599.8	0
124	135727	3599.9	0
124	135727	3600	0

