version 2
run General-1-20221116-16:24:40-44208
attr configname General
attr datetime 20221116-16:24:40
attr experiment General
attr inifile omnetpp.ini
attr iterationvars ""
attr iterationvarsf ""
attr measurement ""
attr network Scenario
attr processid 44208
attr repetition 1
attr replication #1
attr resultdir results
attr runnumber 1
attr seedset 1
param *.hosts 3
param **.constraintAreaMinX 0m
param **.constraintAreaMinY 0m
param **.constraintAreaMinZ 0m
param **.constraintAreaMaxX 600m
param **.constraintAreaMaxY 400m
param **.constraintAreaMaxZ 0m
param **.host*.ipv4.configurator.typename "\"HostAutoConfigurator\""
param **.host*.ipv4.configurator.interfaces "\"wlan0\""
param **.host*.mobility.typename "\"MassMobility\""
param **.host*.mobility.initFromDisplayString false
param **.host*.mobility.changeInterval "truncnormal(2s, 0.5s)"
param **.host*.mobility.angleDelta "normal(0deg, 30deg)"
param **.host*.mobility.speed "truncnormal(20mps, 8mps)"
param **.host*.mobility.updateInterval 100ms
param **.host*.numApps 1
param **.app[0].typename "\"UdpBasicApp\""
param **.app[0].destAddresses "\"host[0]\""
param **.app[0].localPort 9001
param **.app[0].destPort 9001
param **.app[0].messageLength 100B
param **.app[0].startTime "uniform(10s, 30s)"
param **.app[0].sendInterval "uniform(10s, 30s)"
param **.wlan[*].bitrate 2Mbps
param **.wlan[*].mac.dcf.channelAccess.cwMin 7
param **.wlan[*].radio.transmitter.power 2mW
param **.wlan[*].radio.receiver.sensitivity -85dBm
param **.wlan[*].radio.receiver.snirThreshold 4dB

vector 0 Scenario.host[0].wlan[0].radio radioMode:vector ETV
attr interpolationmode sample-hold
attr source radioModeChanged
attr title "Radio mode, vector"
vector 1 Scenario.host[0].wlan[0].radio radioChannel:vector ETV
attr interpolationmode sample-hold
attr source radioChannelChanged
attr title "Radio channel, vector"
vector 2 Scenario.host[1].wlan[0].radio radioMode:vector ETV
attr interpolationmode sample-hold
attr source radioModeChanged
attr title "Radio mode, vector"
vector 3 Scenario.host[1].wlan[0].radio radioChannel:vector ETV
attr interpolationmode sample-hold
attr source radioChannelChanged
attr title "Radio channel, vector"
vector 4 Scenario.host[2].wlan[0].radio radioMode:vector ETV
attr interpolationmode sample-hold
attr source radioModeChanged
attr title "Radio mode, vector"
vector 5 Scenario.host[2].wlan[0].radio radioChannel:vector ETV
attr interpolationmode sample-hold
attr source radioChannelChanged
attr title "Radio channel, vector"
vector 6 Scenario.host[0].wlan[0].radio receptionState:vector ETV
attr interpolationmode sample-hold
attr source receptionStateChanged
attr title "Radio reception state, vector"
vector 7 Scenario.host[1].wlan[0].radio receptionState:vector ETV
attr interpolationmode sample-hold
attr source receptionStateChanged
attr title "Radio reception state, vector"
vector 8 Scenario.host[2].wlan[0].radio receptionState:vector ETV
attr interpolationmode sample-hold
attr source receptionStateChanged
attr title "Radio reception state, vector"
vector 9 Scenario.host[0].wlan[0].mac.dcf.recoveryProcedure contentionWindowChanged:vector ETV
attr interpolationmode sample-hold
attr title "contention window, vector"
vector 10 Scenario.host[1].wlan[0].mac.dcf.recoveryProcedure contentionWindowChanged:vector ETV
attr interpolationmode sample-hold
attr title "contention window, vector"
vector 11 Scenario.host[2].wlan[0].mac.dcf.recoveryProcedure contentionWindowChanged:vector ETV
attr interpolationmode sample-hold
attr title "contention window, vector"
vector 12 Scenario.host[0].app[0] packetSent:vector(packetBytes) ETV
attr interpolationmode none
attr source packetSent
attr title "packets sent, vector(packetBytes)"
vector 13 Scenario.host[0].udp packetSent:vector(packetBytes) ETV
attr interpolationmode none
attr source packetSent
attr title "packets sent, vector(packetBytes)"
vector 14 Scenario.host[0].lo[0].lo rcvdPkFromHl:vector(packetBytes) ETV
attr interpolationmode none
attr source packetReceivedFromUpper
attr title "packets received from higher layer, vector(packetBytes)"
vector 15 Scenario.host[0].lo[0].lo passedUpPk:vector(packetBytes) ETV
attr interpolationmode none
attr source packetSentToUpper
attr title "packets passed to higher layer, vector(packetBytes)"
vector 16 Scenario.host[0].udp packetReceived:vector(packetBytes) ETV
attr interpolationmode none
attr source packetReceived
attr title "packets received, vector(packetBytes)"
vector 17 Scenario.host[0].udp passedUpPk:vector(count) ETV
attr interpolationmode none
attr source packetSentToUpper
attr title "packets passed up, vector(count)"
vector 18 Scenario.host[0].app[0] packetReceived:vector(packetBytes) ETV
attr interpolationmode none
attr source packetReceived
attr title "packets received, vector(packetBytes)"
vector 19 Scenario.host[0].app[0] throughput:vector ETV
attr source throughput(packetReceived)
attr title "throughput, vector"
attr unit bps
vector 20 Scenario.host[0].app[0] rcvdPkLifetime:vector ETV
attr interpolationmode none
attr source dataAge(packetReceived)
attr title "received packet lifetime, vector"
attr unit s
vector 21 Scenario.host[0].app[0] rcvdPkSeqNo:vector ETV
attr interpolationmode none
attr source appPkSeqNo(packetReceived)
attr title "received packet sequence number, vector"
vector 22 Scenario.host[1].app[0] packetSent:vector(packetBytes) ETV
attr interpolationmode none
attr source packetSent
attr title "packets sent, vector(packetBytes)"
vector 23 Scenario.host[1].udp packetSent:vector(packetBytes) ETV
attr interpolationmode none
attr source packetSent
attr title "packets sent, vector(packetBytes)"
vector 24 Scenario.host[1].ipv4.arp arpRequestSent:vector(packetBytes) ETV
attr source arpRequestSent
attr title "ARP request sent, vector(packetBytes)"
vector 25 Scenario.host[1].wlan[0].mac packetReceivedFromUpper:vector(packetBytes) ETV
attr interpolationmode none
attr title "packets received from upper layer, vector(packetBytes)"
vector 26 Scenario.host[1].wlan[0].mac.dcf.channelAccess.pendingQueue packetPushed:vector(packetBytes) ETV
attr interpolationmode none
attr title "packet pushed, vector(packetBytes)"
vector 27 Scenario.host[1].wlan[0].mac.dcf.channelAccess.pendingQueue queueLength:vector ETV
attr interpolationmode sample-hold
attr source "count(packetPushed) - count(packetPopped) - count(packetRemoved) - count(packetDropped)"
attr title "queue length, vector"
vector 28 Scenario.host[1].wlan[0].mac.dcf.channelAccess.contention backoffPeriodGenerated:vector ETV
attr interpolationmode none
attr title "backoff periods, vector"
vector 29 Scenario.host[1].wlan[0].mac.dcf.channelAccess.contention backoffActive:vector ETV
attr interpolationmode sample-hold
attr source count(backoffStarted)-count(backoffStopped)
attr title "backoff active, vector"
vector 30 Scenario.host[1].wlan[0].mac.dcf.channelAccess.pendingQueue packetPopped:vector(packetBytes) ETV
attr interpolationmode none
attr title "packet popped, vector(packetBytes)"
vector 31 Scenario.host[1].wlan[0].mac.dcf.channelAccess.pendingQueue queueingTime:vector ETV
attr interpolationmode none
attr source queueingTime(packetPopped)
attr title "queueing times, vector"
attr unit s
vector 32 Scenario.host[1].wlan[0].mac.dcf.channelAccess.inProgressFrames queueLength:vector ETV
attr interpolationmode sample-hold
attr source "count(packetEnqueued) - count(packetDequeued)"
attr title "queue length, vector"
vector 33 Scenario.host[1].wlan[0].mac.dcf datarateSelected:vector ETV
attr interpolationmode none
attr title "datarates selected, vector"
vector 34 Scenario.host[1].wlan[0].mac packetSentToLower:vector(packetBytes) ETV
attr interpolationmode none
attr title "packets sent to lower layer, vector(packetBytes)"
vector 35 Scenario.host[1].wlan[0].mac.dcf frameSequenceActive:vector ETV
attr interpolationmode sample-hold
attr source count(frameSequenceStarted)-count(frameSequenceFinished)
attr title "frame sequence active, vector"
vector 36 Scenario.host[1].wlan[0].radio transmissionState:vector ETV
attr interpolationmode sample-hold
attr source transmissionStateChanged
attr title "Radio transmission state, vector"
vector 37 Scenario.host[1].wlan[0].mac.dcf packetSentToPeer:vector(packetBytes) ETV
attr interpolationmode none
attr title "packets sent, vector(packetBytes)"
vector 38 Scenario.host[1].wlan[0].mac.dcf packetSentToPeerMulticast:vector(packetBytes) ETV
attr interpolationmode none
attr source ieee80211Multicast(packetSentToPeer)
attr title "packets sent: multicast, vector(packetBytes)"
vector 39 Scenario.host[1].wlan[0].mac.dcf packetSentToPeerBroadcast:vector(packetBytes) ETV
attr interpolationmode none
attr source ieee80211Broadcast(packetSentToPeer)
attr title "packets sent: broadcast , vector(packetBytes)"
vector 40 Scenario.host[1].wlan[0].mac.dcf packetSentToPeerWithoutRetry:vector(packetBytes) ETV
attr interpolationmode none
attr source ieee80211NotRetry(packetSentToPeer)
attr title "packets sent: without retry, vector(packetBytes)"
vector 41 Scenario.host[1].wlan[0].mac.dcf.channelAccess.inProgressFrames queueingTime:vector ETV
attr interpolationmode none
attr source queueingTime(packetDequeued)
attr title "queueing times, vector"
vector 42 Scenario.host[2].wlan[0].mac packetReceivedFromLower:vector(packetBytes) ETV
attr interpolationmode none
attr title "packets received from lower layer, vector(packetBytes)"
vector 43 Scenario.host[2].wlan[0].mac.dcf packetReceivedFromPeer:vector(packetBytes) ETV
attr interpolationmode none
attr title "packets received, vector(packetBytes)"
vector 44 Scenario.host[2].wlan[0].mac.dcf packetReceivedFromPeerMulticast:vector(packetBytes) ETV
attr interpolationmode none
attr source ieee80211Multicast(packetReceivedFromPeer)
attr title "packets received: multicast, vector(packetBytes)"
vector 45 Scenario.host[2].wlan[0].mac.dcf packetReceivedFromPeerBroadcast:vector(packetBytes) ETV
attr interpolationmode none
attr source ieee80211Broadcast(packetReceivedFromPeer)
attr title "packets received: broadcast, vector(packetBytes)"
vector 46 Scenario.host[2].wlan[0].mac.dcf packetReceivedFromPeerWithoutRetry:vector(packetBytes) ETV
attr interpolationmode none
attr source ieee80211NotRetry(packetReceivedFromPeer)
attr title "packets received: without retry, vector(packetBytes)"
vector 47 Scenario.host[2].wlan[0].mac packetSentToUpper:vector(packetBytes) ETV
attr interpolationmode none
attr title "packets sent to upper layer, vector(packetBytes)"
vector 48 Scenario.host[2].app[0] packetSent:vector(packetBytes) ETV
attr interpolationmode none
attr source packetSent
attr title "packets sent, vector(packetBytes)"
vector 49 Scenario.host[2].udp packetSent:vector(packetBytes) ETV
attr interpolationmode none
attr source packetSent
attr title "packets sent, vector(packetBytes)"
vector 50 Scenario.host[2].ipv4.arp arpRequestSent:vector(packetBytes) ETV
attr source arpRequestSent
attr title "ARP request sent, vector(packetBytes)"
vector 51 Scenario.host[2].wlan[0].mac packetReceivedFromUpper:vector(packetBytes) ETV
attr interpolationmode none
attr title "packets received from upper layer, vector(packetBytes)"
vector 52 Scenario.host[2].wlan[0].mac.dcf.channelAccess.pendingQueue packetPushed:vector(packetBytes) ETV
attr interpolationmode none
attr title "packet pushed, vector(packetBytes)"
vector 53 Scenario.host[2].wlan[0].mac.dcf.channelAccess.pendingQueue queueLength:vector ETV
attr interpolationmode sample-hold
attr source "count(packetPushed) - count(packetPopped) - count(packetRemoved) - count(packetDropped)"
attr title "queue length, vector"
vector 54 Scenario.host[2].wlan[0].mac.dcf.channelAccess.contention backoffPeriodGenerated:vector ETV
attr interpolationmode none
attr title "backoff periods, vector"
vector 55 Scenario.host[2].wlan[0].mac.dcf.channelAccess.contention backoffActive:vector ETV
attr interpolationmode sample-hold
attr source count(backoffStarted)-count(backoffStopped)
attr title "backoff active, vector"
vector 56 Scenario.host[2].wlan[0].mac.dcf.channelAccess.pendingQueue packetPopped:vector(packetBytes) ETV
attr interpolationmode none
attr title "packet popped, vector(packetBytes)"
vector 57 Scenario.host[2].wlan[0].mac.dcf.channelAccess.pendingQueue queueingTime:vector ETV
attr interpolationmode none
attr source queueingTime(packetPopped)
attr title "queueing times, vector"
attr unit s
vector 58 Scenario.host[2].wlan[0].mac.dcf.channelAccess.inProgressFrames queueLength:vector ETV
attr interpolationmode sample-hold
attr source "count(packetEnqueued) - count(packetDequeued)"
attr title "queue length, vector"
vector 59 Scenario.host[2].wlan[0].mac.dcf datarateSelected:vector ETV
attr interpolationmode none
attr title "datarates selected, vector"
vector 60 Scenario.host[2].wlan[0].mac packetSentToLower:vector(packetBytes) ETV
attr interpolationmode none
attr title "packets sent to lower layer, vector(packetBytes)"
vector 61 Scenario.host[2].wlan[0].mac.dcf frameSequenceActive:vector ETV
attr interpolationmode sample-hold
attr source count(frameSequenceStarted)-count(frameSequenceFinished)
attr title "frame sequence active, vector"
vector 62 Scenario.host[2].wlan[0].radio transmissionState:vector ETV
attr interpolationmode sample-hold
attr source transmissionStateChanged
attr title "Radio transmission state, vector"
vector 63 Scenario.host[2].wlan[0].mac.dcf packetSentToPeer:vector(packetBytes) ETV
attr interpolationmode none
attr title "packets sent, vector(packetBytes)"
vector 64 Scenario.host[2].wlan[0].mac.dcf packetSentToPeerMulticast:vector(packetBytes) ETV
attr interpolationmode none
attr source ieee80211Multicast(packetSentToPeer)
attr title "packets sent: multicast, vector(packetBytes)"
vector 65 Scenario.host[2].wlan[0].mac.dcf packetSentToPeerBroadcast:vector(packetBytes) ETV
attr interpolationmode none
attr source ieee80211Broadcast(packetSentToPeer)
attr title "packets sent: broadcast , vector(packetBytes)"
vector 66 Scenario.host[2].wlan[0].mac.dcf packetSentToPeerWithoutRetry:vector(packetBytes) ETV
attr interpolationmode none
attr source ieee80211NotRetry(packetSentToPeer)
attr title "packets sent: without retry, vector(packetBytes)"
vector 67 Scenario.host[2].wlan[0].mac.dcf.channelAccess.inProgressFrames queueingTime:vector ETV
attr interpolationmode none
attr source queueingTime(packetDequeued)
attr title "queueing times, vector"
vector 68 Scenario.host[1].wlan[0].mac packetReceivedFromLower:vector(packetBytes) ETV
attr interpolationmode none
attr title "packets received from lower layer, vector(packetBytes)"
vector 69 Scenario.host[1].wlan[0].mac.dcf packetReceivedFromPeer:vector(packetBytes) ETV
attr interpolationmode none
attr title "packets received, vector(packetBytes)"
vector 70 Scenario.host[1].wlan[0].mac.dcf packetReceivedFromPeerMulticast:vector(packetBytes) ETV
attr interpolationmode none
attr source ieee80211Multicast(packetReceivedFromPeer)
attr title "packets received: multicast, vector(packetBytes)"
vector 71 Scenario.host[1].wlan[0].mac.dcf packetReceivedFromPeerBroadcast:vector(packetBytes) ETV
attr interpolationmode none
attr source ieee80211Broadcast(packetReceivedFromPeer)
attr title "packets received: broadcast, vector(packetBytes)"
vector 72 Scenario.host[1].wlan[0].mac.dcf packetReceivedFromPeerWithoutRetry:vector(packetBytes) ETV
attr interpolationmode none
attr source ieee80211NotRetry(packetReceivedFromPeer)
attr title "packets received: without retry, vector(packetBytes)"
vector 73 Scenario.host[1].wlan[0].mac packetSentToUpper:vector(packetBytes) ETV
attr interpolationmode none
attr title "packets sent to upper layer, vector(packetBytes)"
vector 74 Scenario.host[1].ipv4.ip packetDropAddressResolutionFailed:vector(packetBytes) ETV
attr interpolationmode none
attr source packetDropReasonIsAddressResolutionFailed(packetDropped)
attr title "packet drop: address resolution failed, vector(packetBytes)"
vector 75 Scenario.host[2].ipv4.ip packetDropAddressResolutionFailed:vector(packetBytes) ETV
attr interpolationmode none
attr source packetDropReasonIsAddressResolutionFailed(packetDropped)
attr title "packet drop: address resolution failed, vector(packetBytes)"
vector 76 Scenario.host[0].wlan[0].mac packetReceivedFromLower:vector(packetBytes) ETV
attr interpolationmode none
attr title "packets received from lower layer, vector(packetBytes)"
vector 77 Scenario.host[0].wlan[0].mac.dcf packetReceivedFromPeer:vector(packetBytes) ETV
attr interpolationmode none
attr title "packets received, vector(packetBytes)"
vector 78 Scenario.host[0].wlan[0].mac.dcf packetReceivedFromPeerMulticast:vector(packetBytes) ETV
attr interpolationmode none
attr source ieee80211Multicast(packetReceivedFromPeer)
attr title "packets received: multicast, vector(packetBytes)"
vector 79 Scenario.host[0].wlan[0].mac.dcf packetReceivedFromPeerBroadcast:vector(packetBytes) ETV
attr interpolationmode none
attr source ieee80211Broadcast(packetReceivedFromPeer)
attr title "packets received: broadcast, vector(packetBytes)"
vector 80 Scenario.host[0].wlan[0].mac.dcf packetReceivedFromPeerWithoutRetry:vector(packetBytes) ETV
attr interpolationmode none
attr source ieee80211NotRetry(packetReceivedFromPeer)
attr title "packets received: without retry, vector(packetBytes)"
vector 81 Scenario.host[0].wlan[0].mac packetSentToUpper:vector(packetBytes) ETV
attr interpolationmode none
attr title "packets sent to upper layer, vector(packetBytes)"
vector 82 Scenario.host[0].ipv4.arp arpReplySent:vector(packetBytes) ETV
attr source arpReplySent
attr title "ARP replies sent, vector(packetBytes)"
vector 83 Scenario.host[0].wlan[0].mac packetReceivedFromUpper:vector(packetBytes) ETV
attr interpolationmode none
attr title "packets received from upper layer, vector(packetBytes)"
vector 84 Scenario.host[0].wlan[0].mac.dcf.channelAccess.pendingQueue packetPushed:vector(packetBytes) ETV
attr interpolationmode none
attr title "packet pushed, vector(packetBytes)"
vector 85 Scenario.host[0].wlan[0].mac.dcf.channelAccess.pendingQueue queueLength:vector ETV
attr interpolationmode sample-hold
attr source "count(packetPushed) - count(packetPopped) - count(packetRemoved) - count(packetDropped)"
attr title "queue length, vector"
vector 86 Scenario.host[0].wlan[0].mac.dcf.channelAccess.contention backoffPeriodGenerated:vector ETV
attr interpolationmode none
attr title "backoff periods, vector"
vector 87 Scenario.host[0].wlan[0].mac.dcf.channelAccess.contention backoffActive:vector ETV
attr interpolationmode sample-hold
attr source count(backoffStarted)-count(backoffStopped)
attr title "backoff active, vector"
vector 88 Scenario.host[0].wlan[0].mac.dcf.channelAccess.pendingQueue packetPopped:vector(packetBytes) ETV
attr interpolationmode none
attr title "packet popped, vector(packetBytes)"
vector 89 Scenario.host[0].wlan[0].mac.dcf.channelAccess.pendingQueue queueingTime:vector ETV
attr interpolationmode none
attr source queueingTime(packetPopped)
attr title "queueing times, vector"
attr unit s
vector 90 Scenario.host[0].wlan[0].mac.dcf.channelAccess.inProgressFrames queueLength:vector ETV
attr interpolationmode sample-hold
attr source "count(packetEnqueued) - count(packetDequeued)"
attr title "queue length, vector"
vector 91 Scenario.host[0].wlan[0].mac.dcf datarateSelected:vector ETV
attr interpolationmode none
attr title "datarates selected, vector"
vector 92 Scenario.host[0].wlan[0].mac packetSentToLower:vector(packetBytes) ETV
attr interpolationmode none
attr title "packets sent to lower layer, vector(packetBytes)"
vector 93 Scenario.host[0].wlan[0].mac.dcf frameSequenceActive:vector ETV
attr interpolationmode sample-hold
attr source count(frameSequenceStarted)-count(frameSequenceFinished)
attr title "frame sequence active, vector"
vector 94 Scenario.host[0].wlan[0].radio transmissionState:vector ETV
attr interpolationmode sample-hold
attr source transmissionStateChanged
attr title "Radio transmission state, vector"
vector 95 Scenario.host[0].wlan[0].mac.dcf packetSentToPeer:vector(packetBytes) ETV
attr interpolationmode none
attr title "packets sent, vector(packetBytes)"
vector 96 Scenario.host[0].wlan[0].mac.dcf packetSentToPeerUnicast:vector(packetBytes) ETV
attr interpolationmode none
attr source ieee80211Unicast(packetSentToPeer)
attr title "packets sent: unicast, vector(packetBytes)"
vector 97 Scenario.host[0].wlan[0].mac.dcf packetSentToPeerWithoutRetry:vector(packetBytes) ETV
attr interpolationmode none
attr source ieee80211NotRetry(packetSentToPeer)
attr title "packets sent: without retry, vector(packetBytes)"
vector 98 Scenario.host[0].wlan[0].mac.rx nav:vector ETV
attr interpolationmode linear
attr source navChanged
attr title "network allocation vector, vector"
vector 99 Scenario.host[1].wlan[0].mac.dcf packetReceivedFromPeerUnicast:vector(packetBytes) ETV
attr interpolationmode none
attr source ieee80211Unicast(packetReceivedFromPeer)
attr title "packets received: unicast, vector(packetBytes)"
vector 100 Scenario.host[1].wlan[0].mac.dcf packetSentToPeerUnicast:vector(packetBytes) ETV
attr interpolationmode none
attr source ieee80211Unicast(packetSentToPeer)
attr title "packets sent: unicast, vector(packetBytes)"
vector 101 Scenario.host[0].wlan[0].mac.dcf packetReceivedFromPeerUnicast:vector(packetBytes) ETV
attr interpolationmode none
attr source ieee80211Unicast(packetReceivedFromPeer)
attr title "packets received: unicast, vector(packetBytes)"
vector 102 Scenario.host[0].wlan[0].mac.dcf.channelAccess.inProgressFrames queueingTime:vector ETV
attr interpolationmode none
attr source queueingTime(packetDequeued)
attr title "queueing times, vector"
vector 103 Scenario.host[2].wlan[0].mac.dcf packetDrop:vector(packetBytes) ETV
attr interpolationmode none
attr source packetDropped
attr title "packet drops, vector(packetBytes)"
vector 104 Scenario.host[2].wlan[0].mac.dcf packetDropNotAddressedToUs:vector(packetBytes) ETV
attr interpolationmode none
attr source packetDropReasonIsNotAddressedToUs(packetDropped)
attr title "packet drops: not addressed to us, vector(packetBytes)"
vector 105 Scenario.host[2].wlan[0].mac packetDrop:vector(packetBytes) ETV
attr interpolationmode none
attr source packetDropped
attr title "packet drops, vector(packetBytes)"
vector 106 Scenario.host[2].wlan[0].mac packetDropNotAddressedToUs:vector(packetBytes) ETV
attr interpolationmode none
attr source packetDropReasonIsNotAddressedToUs(packetDropped)
attr title "packet drops: not addressed to us, vector(packetBytes)"
vector 107 Scenario.host[1].wlan[0].mac.rx nav:vector ETV
attr interpolationmode linear
attr source navChanged
attr title "network allocation vector, vector"
vector 108 Scenario.host[2].wlan[0].mac.rx nav:vector ETV
attr interpolationmode linear
attr source navChanged
attr title "network allocation vector, vector"
vector 109 Scenario.host[1].wlan[0].mac.dcf packetDrop:vector(packetBytes) ETV
attr interpolationmode none
attr source packetDropped
attr title "packet drops, vector(packetBytes)"
vector 110 Scenario.host[1].wlan[0].mac.dcf packetDropNotAddressedToUs:vector(packetBytes) ETV
attr interpolationmode none
attr source packetDropReasonIsNotAddressedToUs(packetDropped)
attr title "packet drops: not addressed to us, vector(packetBytes)"
vector 111 Scenario.host[1].wlan[0].mac packetDrop:vector(packetBytes) ETV
attr interpolationmode none
attr source packetDropped
attr title "packet drops, vector(packetBytes)"
vector 112 Scenario.host[1].wlan[0].mac packetDropNotAddressedToUs:vector(packetBytes) ETV
attr interpolationmode none
attr source packetDropReasonIsNotAddressedToUs(packetDropped)
attr title "packet drops: not addressed to us, vector(packetBytes)"
vector 113 Scenario.host[2].wlan[0].mac.dcf packetReceivedFromPeerUnicast:vector(packetBytes) ETV
attr interpolationmode none
attr source ieee80211Unicast(packetReceivedFromPeer)
attr title "packets received: unicast, vector(packetBytes)"
vector 114 Scenario.host[2].wlan[0].mac.dcf packetSentToPeerUnicast:vector(packetBytes) ETV
attr interpolationmode none
attr source ieee80211Unicast(packetSentToPeer)
attr title "packets sent: unicast, vector(packetBytes)"
vector 115 Scenario.host[2].wlan[0].mac.dcf packetSentToPeerWithRetry:vector(packetBytes) ETV
attr interpolationmode none
attr source ieee80211Retry(packetSentToPeer)
attr title "packets sent: with retry, vector(packetBytes)"
vector 116 Scenario.host[2].wlan[0].mac.dcf packetDropRetryLimitReached:vector(packetBytes) ETV
attr interpolationmode none
attr source packetDropReasonIsRetryLimitReached(packetDropped)
attr title "packet drops: retry limit reached, vector(packetBytes)"
vector 117 Scenario.host[2].wlan[0].mac packetDropRetryLimitReached:vector(packetBytes) ETV
attr interpolationmode none
attr source packetDropReasonIsRetryLimitReached(packetDropped)
attr title "packet drops: retry limit reached, vector(packetBytes)"
vector 118 Scenario.host[1].wlan[0].mac.dcf packetSentToPeerWithRetry:vector(packetBytes) ETV
attr interpolationmode none
attr source ieee80211Retry(packetSentToPeer)
attr title "packets sent: with retry, vector(packetBytes)"
vector 119 Scenario.host[1].wlan[0].mac.dcf packetDropRetryLimitReached:vector(packetBytes) ETV
attr interpolationmode none
attr source packetDropReasonIsRetryLimitReached(packetDropped)
attr title "packet drops: retry limit reached, vector(packetBytes)"
vector 120 Scenario.host[1].wlan[0].mac packetDropRetryLimitReached:vector(packetBytes) ETV
attr interpolationmode none
attr source packetDropReasonIsRetryLimitReached(packetDropped)
attr title "packet drops: retry limit reached, vector(packetBytes)"
19	314	0.1	0
19	314	0.2	0
19	314	0.3	0
19	314	0.4	0
19	314	0.5	0
19	314	0.6	0
19	314	0.7	0
19	314	0.8	0
19	314	0.9	0
19	314	1	0
19	314	1.1	0
19	314	1.2	0
19	314	1.3	0
19	314	1.4	0
19	314	1.5	0
19	314	1.6	0
19	314	1.7	0
19	314	1.8	0
19	314	1.9	0
19	314	2	0
19	314	2.1	0
19	314	2.2	0
19	314	2.3	0
19	314	2.4	0
19	314	2.5	0
19	314	2.6	0
19	314	2.7	0
19	314	2.8	0
19	314	2.9	0
19	314	3	0
19	314	3.1	0
19	314	3.2	0
19	314	3.3	0
19	314	3.4	0
19	314	3.5	0
19	314	3.6	0
19	314	3.7	0
19	314	3.8	0
19	314	3.9	0
19	314	4	0
19	314	4.1	0
19	314	4.2	0
19	314	4.3	0
19	314	4.4	0
19	314	4.5	0
19	314	4.6	0
19	314	4.7	0
19	314	4.8	0
19	314	4.9	0
19	314	5	0
19	314	5.1	0
19	314	5.2	0
19	314	5.3	0
19	314	5.4	0
19	314	5.5	0
19	314	5.6	0
19	314	5.7	0
19	314	5.8	0
19	314	5.9	0
19	314	6	0
19	314	6.1	0
19	314	6.2	0
19	314	6.3	0
19	314	6.4	0
19	314	6.5	0
19	314	6.6	0
19	314	6.7	0
19	314	6.8	0
19	314	6.9	0
19	314	7	0
19	314	7.1	0
19	314	7.2	0
19	314	7.3	0
19	314	7.4	0
19	314	7.5	0
19	314	7.6	0
19	314	7.7	0
19	314	7.8	0
19	314	7.9	0
19	314	8	0
19	314	8.1	0
19	314	8.2	0
19	314	8.3	0
19	314	8.4	0
19	314	8.5	0
19	314	8.6	0
19	314	8.7	0
19	314	8.8	0
19	314	8.9	0
19	314	9	0
19	314	9.1	0
19	314	9.2	0
19	314	9.3	0
19	314	9.4	0
19	314	9.5	0
19	314	9.6	0
19	314	9.7	0
19	314	9.8	0
19	314	9.9	0
19	314	10	0
19	1170	10.1	8000
19	1170	10.2	0
19	1170	10.3	0
19	1170	10.4	0
19	1170	10.5	0
19	1170	10.6	0
19	1170	10.7	0
19	1170	10.8	0
19	1170	10.9	0
19	1170	11	0
19	1170	11.1	0
19	1170	11.2	0
19	1170	11.3	0
19	1170	11.4	0
19	1170	11.5	0
19	1170	11.6	0
19	1170	11.7	0
19	1170	11.8	0
19	1170	11.9	0
19	1170	12	0
19	1170	12.1	0
19	1170	12.2	0
19	1170	12.3	0
19	1170	12.4	0
19	1170	12.5	0
19	1170	12.6	0
19	1170	12.7	0
19	1170	12.8	0
19	1170	12.9	0
19	1170	13	0
19	1170	13.1	0
19	1170	13.2	0
19	1170	13.3	0
19	1170	13.4	0
19	1170	13.5	0
19	1170	13.6	0
19	1170	13.7	0
19	1170	13.8	0
19	1170	13.9	0
19	1170	14	0
19	1170	14.1	0
19	1170	14.2	0
19	1170	14.3	0
19	1170	14.4	0
19	1170	14.5	0
19	1170	14.6	0
19	1170	14.7	0
19	1170	14.8	0
19	1170	14.9	0
19	1170	15	0
19	1170	15.1	0
19	1170	15.2	0
19	1170	15.3	0
19	1170	15.4	0
19	1170	15.5	0
19	1170	15.6	0
19	1170	15.7	0
19	1170	15.8	0
19	1170	15.9	0
19	1170	16	0
19	1170	16.1	0
19	1170	16.2	0
19	1170	16.3	0
19	1170	16.4	0
19	1170	16.5	0
19	1170	16.6	0
19	1170	16.7	0
19	1170	16.8	0
19	1170	16.9	0
19	1170	17	0
19	1170	17.1	0
19	1170	17.2	0
19	1170	17.3	0
19	1170	17.4	0
19	1170	17.5	0
19	1170	17.6	0
19	1170	17.7	0
19	1170	17.8	0
19	1170	17.9	0
19	1170	18	0
19	1170	18.1	0
19	1170	18.2	0
19	1170	18.3	0
19	1170	18.4	0
19	1170	18.5	0
19	1170	18.6	0
19	1170	18.7	0
19	1170	18.8	0
19	1170	18.9	0
19	1170	19	0
19	1170	19.1	0
19	1170	19.2	0
19	1170	19.3	0
19	1170	19.4	0
19	1170	19.5	0
19	1170	19.6	0
19	1170	19.7	0
19	1170	19.8	0
19	1170	19.9	0
19	1170	20	0
19	1170	20.1	0
19	1170	20.2	0
19	1170	20.3	0
19	1170	20.4	0
19	1170	20.5	0
19	1170	20.6	0
19	1170	20.7	0
19	1170	20.8	0
19	1170	20.9	0
19	1170	21	0
19	1170	21.1	0
19	1170	21.2	0
19	1170	21.3	0
19	1170	21.4	0
19	1170	21.5	0
19	1170	21.6	0
19	1170	21.7	0
19	1170	21.8	0
19	1170	21.9	0
19	1170	22	0
19	1170	22.1	0
19	1170	22.2	0
19	1170	22.3	0
19	1170	22.4	0
19	1170	22.5	0
19	1170	22.6	0
19	1170	22.7	0
19	1170	22.8	0
19	1170	22.9	0
19	1170	23	0
19	1170	23.1	0
19	1170	23.2	0
19	1170	23.3	0
19	1170	23.4	0
19	1170	23.5	0
19	1170	23.6	0
19	1170	23.7	0
19	1170	23.8	0
19	1170	23.9	0
19	1170	24	0
19	1170	24.1	0
19	1170	24.2	0
19	1170	24.3	0
19	1170	24.4	0
19	1170	24.5	0
19	1170	24.6	0
19	1170	24.7	0
19	1170	24.8	0
19	1170	24.9	0
19	1170	25	0
19	1170	25.1	0
19	1170	25.2	0
19	1170	25.3	0
19	1170	25.4	0
19	1170	25.5	0
19	1170	25.6	0
19	1170	25.7	0
19	1170	25.8	0
19	1170	25.9	0
19	1170	26	0
19	1170	26.1	0
19	1170	26.2	0
19	1170	26.3	0
19	1170	26.4	0
19	1170	26.5	0
19	1170	26.6	0
19	1170	26.7	0
19	1170	26.8	0
19	1170	26.9	0
19	1170	27	0
19	1170	27.1	0
19	1170	27.2	0
19	1170	27.3	0
19	1170	27.4	0
19	1170	27.5	0
19	1170	27.6	0
19	1170	27.7	0
19	1170	27.8	0
19	1170	27.9	0
19	1170	28	0
19	1170	28.1	0
19	1170	28.2	0
19	1170	28.3	0
19	1170	28.4	0
19	1170	28.5	0
19	1170	28.6	0
19	1170	28.7	0
19	1170	28.8	0
19	1170	28.9	0
19	1170	29	0
19	1170	29.1	0
19	1170	29.2	0
19	1170	29.3	0
19	1170	29.4	0
19	1170	29.5	0
19	1170	29.6	0
19	1170	29.7	0
19	1170	29.8	0
19	1170	29.9	0
19	1170	30	0
19	1170	30.1	0
19	1170	30.2	0
19	1170	30.3	0
19	1170	30.4	0
19	1170	30.5	0
19	1170	30.6	0
19	1170	30.7	0
19	1170	30.8	0
19	1170	30.9	0
19	1170	31	0
19	1170	31.1	0
19	1170	31.2	0
19	1170	31.3	0
19	1170	31.4	0
19	1170	31.5	0
19	1170	31.6	0
19	1170	31.7	0
19	1170	31.8	0
19	1170	31.9	0
19	1170	32	0
19	1170	32.1	0
19	1170	32.2	0
19	1170	32.3	0
19	1170	32.4	0
19	1170	32.5	0
19	1170	32.6	0
19	1170	32.7	0
19	1170	32.8	0
19	1170	32.9	0
19	1170	33	0
19	1170	33.1	0
19	1170	33.2	0
19	1170	33.3	0
19	1170	33.4	0
19	1170	33.5	0
19	1170	33.6	0
19	1170	33.7	0
19	1170	33.8	0
19	1170	33.9	0
19	1457	34	8000
19	1457	34.1	0
19	1457	34.2	0
19	1457	34.3	0
19	1457	34.4	0
19	1457	34.5	0
19	1457	34.6	0
19	1457	34.7	0
19	1457	34.8	0
19	1457	34.9	0
19	1457	35	0
19	1457	35.1	0
19	1457	35.2	0
19	1457	35.3	0
19	1457	35.4	0
19	1457	35.5	0
19	1457	35.6	0
19	1457	35.7	0
19	1457	35.8	0
19	1457	35.9	0
19	1457	36	0
19	1457	36.1	0
19	1457	36.2	0
19	1457	36.3	0
19	1457	36.4	0
19	1457	36.5	0
19	1457	36.6	0
19	1457	36.7	0
19	1457	36.8	0
19	1457	36.9	0
19	1457	37	0
19	1457	37.1	0
19	1457	37.2	0
19	1457	37.3	0
19	1457	37.4	0
19	1457	37.5	0
19	1457	37.6	0
19	1457	37.7	0
19	1457	37.8	0
19	1457	37.9	0
19	1457	38	0
19	1457	38.1	0
19	1457	38.2	0
19	1457	38.3	0
19	1457	38.4	0
19	1457	38.5	0
19	1457	38.6	0
19	1457	38.7	0
19	1457	38.8	0
19	1457	38.9	0
19	1457	39	0
19	1457	39.1	0
19	1457	39.2	0
19	1457	39.3	0
19	1457	39.4	0
19	1457	39.5	0
19	1457	39.6	0
19	1457	39.7	0
19	1689	39.8	8000
19	1689	39.9	0
19	1689	40	0
19	1689	40.1	0
19	1689	40.2	0
19	1689	40.3	0
19	1689	40.4	0
19	1689	40.5	0
19	1689	40.6	0
19	1689	40.7	0
19	1689	40.8	0
19	1689	40.9	0
19	1689	41	0
19	1689	41.1	0
19	1689	41.2	0
19	1689	41.3	0
19	1689	41.4	0
19	1689	41.5	0
19	1689	41.6	0
19	1689	41.7	0
19	1689	41.8	0
19	1689	41.9	0
19	1689	42	0
19	1689	42.1	0
19	1689	42.2	0
19	1689	42.3	0
19	1689	42.4	0
19	1689	42.5	0
19	1689	42.6	0
19	1689	42.7	0
19	1689	42.8	0
19	1689	42.9	0
19	1689	43	0
19	1689	43.1	0
19	1689	43.2	0
19	1689	43.3	0
19	1689	43.4	0
19	1689	43.5	0
19	1689	43.6	0
19	1689	43.7	0
19	1689	43.8	0
19	1689	43.9	0
19	1689	44	0
19	1689	44.1	0
19	1689	44.2	0
19	1689	44.3	0
19	1799	44.4	8000
19	1799	44.5	0
19	1799	44.6	0
19	1799	44.7	0
19	1799	44.8	0
19	1799	44.9	0
19	1799	45	0
19	1799	45.1	0
19	1799	45.2	0
19	1799	45.3	0
19	1799	45.4	0
19	1799	45.5	0
19	1799	45.6	0
19	1799	45.7	0
19	1799	45.8	0
19	1799	45.9	0
19	1799	46	0
19	1799	46.1	0
19	1799	46.2	0
19	1799	46.3	0
19	1799	46.4	0
19	1799	46.5	0
19	1799	46.6	0
19	1799	46.7	0
19	1799	46.8	0
19	1799	46.9	0
19	1799	47	0
19	1799	47.1	0
19	1999	47.2	8000
19	1999	47.3	0
19	1999	47.4	0
19	1999	47.5	0
19	1999	47.6	0
19	1999	47.7	0
19	1999	47.8	0
19	1999	47.9	0
19	1999	48	0
19	1999	48.1	0
19	1999	48.2	0
19	1999	48.3	0
19	1999	48.4	0
19	1999	48.5	0
19	1999	48.6	0
19	1999	48.7	0
19	1999	48.8	0
19	1999	48.9	0
19	1999	49	0
19	1999	49.1	0
19	1999	49.2	0
19	1999	49.3	0
19	1999	49.4	0
19	1999	49.5	0
19	1999	49.6	0
19	1999	49.7	0
19	1999	49.8	0
19	1999	49.9	0
19	1999	50	0
19	1999	50.1	0
19	1999	50.2	0
19	1999	50.3	0
19	1999	50.4	0
19	1999	50.5	0
19	1999	50.6	0
19	1999	50.7	0
19	1999	50.8	0
19	1999	50.9	0
19	1999	51	0
19	1999	51.1	0
19	1999	51.2	0
19	1999	51.3	0
19	1999	51.4	0
19	1999	51.5	0
19	1999	51.6	0
19	1999	51.7	0
19	1999	51.8	0
19	1999	51.9	0
19	1999	52	0
19	1999	52.1	0
19	1999	52.2	0
19	1999	52.3	0
19	1999	52.4	0
19	1999	52.5	0
19	1999	52.6	0
19	1999	52.7	0
19	1999	52.8	0
19	1999	52.9	0
19	1999	53	0
19	2725	53.1	8000
19	2725	53.2	0
19	2725	53.3	0
19	2725	53.4	0
19	2725	53.5	0
19	2725	53.6	0
19	2725	53.7	0
19	2725	53.8	0
19	2725	53.9	0
19	2725	54	0
19	2725	54.1	0
19	2725	54.2	0
19	2725	54.3	0
19	2725	54.4	0
19	2725	54.5	0
19	2725	54.6	0
19	2725	54.7	0
19	2725	54.8	0
19	2725	54.9	0
19	2725	55	0
19	2725	55.1	0
19	2725	55.2	0
19	2725	55.3	0
19	2725	55.4	0
19	2725	55.5	0
19	2725	55.6	0
19	2725	55.7	0
19	2725	55.8	0
19	2725	55.9	0
19	2725	56	0
19	2725	56.1	0
19	2725	56.2	0
19	2725	56.3	0
19	2725	56.4	0
19	2725	56.5	0
19	2725	56.6	0
19	2725	56.7	0
19	2725	56.8	0
19	2725	56.9	0
19	2725	57	0
19	2725	57.1	0
19	2725	57.2	0
19	2725	57.3	0
19	2725	57.4	0
19	2725	57.5	0
19	2725	57.6	0
19	2725	57.7	0
19	2725	57.8	0
19	2725	57.9	0
19	2725	58	0
19	2725	58.1	0
19	2725	58.2	0
19	2725	58.3	0
19	2725	58.4	0
19	2725	58.5	0
19	2725	58.6	0
19	2725	58.7	0
19	2725	58.8	0
19	2725	58.9	0
19	2725	59	0
19	2725	59.1	0
19	2725	59.2	0
19	2725	59.3	0
19	2725	59.4	0
19	2725	59.5	0
19	2725	59.6	0
19	2725	59.7	0
19	2725	59.8	0
19	2725	59.9	0
19	2725	60	0
19	2725	60.1	0
19	2725	60.2	0
19	2725	60.3	0
19	2725	60.4	0
19	2725	60.5	0
19	2725	60.6	0
19	2725	60.7	0
19	2725	60.8	0
19	2725	60.9	0
19	2725	61	0
19	2725	61.1	0
19	2725	61.2	0
19	2725	61.3	0
19	2725	61.4	0
19	2725	61.5	0
19	2725	61.6	0
19	2725	61.7	0
19	2725	61.8	0
19	2725	61.9	0
19	2725	62	0
19	2725	62.1	0
19	2725	62.2	0
19	2725	62.3	0
19	2725	62.4	0
19	2725	62.5	0
19	2725	62.6	0
19	2725	62.7	0
19	2725	62.8	0
19	2725	62.9	0
19	2725	63	0
19	2725	63.1	0
19	2725	63.2	0
19	2725	63.3	0
19	2725	63.4	0
19	2725	63.5	0
19	2725	63.6	0
19	2725	63.7	0
19	2725	63.8	0
19	2725	63.9	0
19	2725	64	0
19	2725	64.1	0
19	2725	64.2	0
19	2725	64.3	0
19	2725	64.4	0
19	2725	64.5	0
19	2725	64.6	0
19	2725	64.7	0
19	2725	64.8	0
19	2725	64.9	0
19	2725	65	0
19	2725	65.1	0
19	2725	65.2	0
19	2725	65.3	0
19	2725	65.4	0
19	2725	65.5	0
19	2725	65.6	0
19	2725	65.7	0
19	2725	65.8	0
19	2725	65.9	0
19	2725	66	0
19	2725	66.1	0
19	2725	66.2	0
19	2725	66.3	0
19	2725	66.4	0
19	2725	66.5	0
19	2725	66.6	0
19	2725	66.7	0
19	2725	66.8	0
19	2725	66.9	0
19	2725	67	0
19	2725	67.1	0
19	2725	67.2	0
19	2725	67.3	0
19	2725	67.4	0
19	2725	67.5	0
19	2725	67.6	0
19	2725	67.7	0
19	2725	67.8	0
19	2725	67.9	0
19	2725	68	0
19	2725	68.1	0
19	2725	68.2	0
19	2725	68.3	0
19	2725	68.4	0
19	2725	68.5	0
19	2725	68.6	0
19	2725	68.7	0
19	2725	68.8	0
19	2725	68.9	0
19	2725	69	0
19	2725	69.1	0
19	2725	69.2	0
19	2725	69.3	0
19	2725	69.4	0
19	2725	69.5	0
19	2725	69.6	0
19	2725	69.7	0
19	2725	69.8	0
19	2725	69.9	0
19	2725	70	0
19	2725	70.1	0
19	2725	70.2	0
19	2725	70.3	0
19	2725	70.4	0
19	2725	70.5	0
19	2725	70.6	0
19	2725	70.7	0
19	2725	70.8	0
19	2725	70.9	0
19	2725	71	0
19	2725	71.1	0
19	2725	71.2	0
19	2725	71.3	0
19	2725	71.4	0
19	2725	71.5	0
19	2725	71.6	0
19	2725	71.7	0
19	2725	71.8	0
19	2725	71.9	0
19	2725	72	0
19	2725	72.1	0
19	2725	72.2	0
19	2725	72.3	0
19	2780	72.4	8000
19	2780	72.5	0
19	2780	72.6	0
19	2780	72.7	0
19	2780	72.8	0
19	2780	72.9	0
19	2780	73	0
19	2780	73.1	0
19	2780	73.2	0
19	2780	73.3	0
19	2780	73.4	0
19	3271	73.5	8000
19	3271	73.6	0
19	3271	73.7	0
19	3271	73.8	0
19	3271	73.9	0
19	3271	74	0
19	3271	74.1	0
19	3271	74.2	0
19	3271	74.3	0
19	3271	74.4	0
19	3271	74.5	0
19	3271	74.6	0
19	3271	74.7	0
19	3271	74.8	0
19	3271	74.9	0
19	3271	75	0
19	3271	75.1	0
19	3271	75.2	0
19	3271	75.3	0
19	3271	75.4	0
19	3271	75.5	0
19	3271	75.6	0
19	3271	75.7	0
19	3271	75.8	0
19	3271	75.9	0
19	3271	76	0
19	3271	76.1	0
19	3271	76.2	0
19	3271	76.3	0
19	3271	76.4	0
19	3271	76.5	0
19	3271	76.6	0
19	3271	76.7	0
19	3271	76.8	0
19	3271	76.9	0
19	3271	77	0
19	3271	77.1	0
19	3271	77.2	0
19	3271	77.3	0
19	3271	77.4	0
19	3271	77.5	0
19	3271	77.6	0
19	3271	77.7	0
19	3271	77.8	0
19	3271	77.9	0
19	3271	78	0
19	3271	78.1	0
19	3271	78.2	0
19	3271	78.3	0
19	3271	78.4	0
19	3271	78.5	0
19	3271	78.6	0
19	3271	78.7	0
19	3271	78.8	0
19	3271	78.9	0
19	3271	79	0
19	3271	79.1	0
19	3271	79.2	0
19	3271	79.3	0
19	3271	79.4	0
19	3271	79.5	0
19	3271	79.6	0
19	3271	79.7	0
19	3271	79.8	0
19	3271	79.9	0
19	3271	80	0
19	3271	80.1	0
19	3271	80.2	0
19	3271	80.3	0
19	3271	80.4	0
19	3271	80.5	0
19	3271	80.6	0
19	3271	80.7	0
19	3271	80.8	0
19	3271	80.9	0
19	3271	81	0
19	3271	81.1	0
19	3271	81.2	0
19	3271	81.3	0
19	3271	81.4	0
19	3271	81.5	0
19	3271	81.6	0
19	3271	81.7	0
19	3271	81.8	0
19	3271	81.9	0
19	3271	82	0
19	3271	82.1	0
19	3271	82.2	0
19	3271	82.3	0
19	3271	82.4	0
19	3271	82.5	0
19	3271	82.6	0
19	3271	82.7	0
19	3271	82.8	0
19	3271	82.9	0
19	3271	83	0
19	3271	83.1	0
19	3271	83.2	0
19	3271	83.3	0
19	3271	83.4	0
19	3271	83.5	0
19	3271	83.6	0
19	3271	83.7	0
19	3271	83.8	0
19	3271	83.9	0
19	3271	84	0
19	3271	84.1	0
19	3271	84.2	0
19	3271	84.3	0
19	3271	84.4	0
19	3271	84.5	0
19	3271	84.6	0
19	3271	84.7	0
19	3271	84.8	0
19	3271	84.9	0
19	3271	85	0
19	3271	85.1	0
19	3271	85.2	0
19	3271	85.3	0
19	3271	85.4	0
19	3271	85.5	0
19	3271	85.6	0
19	3271	85.7	0
19	3271	85.8	0
19	3271	85.9	0
19	3271	86	0
19	3271	86.1	0
19	3271	86.2	0
19	3271	86.3	0
19	3271	86.4	0
19	3271	86.5	0
19	3271	86.6	0
19	3271	86.7	0
19	3271	86.8	0
19	3271	86.9	0
19	3271	87	0
19	3271	87.1	0
19	3271	87.2	0
19	3271	87.3	0
19	3271	87.4	0
19	3271	87.5	0
19	3271	87.6	0
19	3271	87.7	0
19	3271	87.8	0
19	3271	87.9	0
19	3271	88	0
19	3271	88.1	0
19	3271	88.2	0
19	3271	88.3	0
19	3271	88.4	0
19	3271	88.5	0
19	3271	88.6	0
19	3271	88.7	0
19	3574	88.8	8000
19	3574	88.9	0
19	3574	89	0
19	3574	89.1	0
19	3574	89.2	0
19	3574	89.3	0
19	3574	89.4	0
19	3574	89.5	0
19	3574	89.6	0
19	3574	89.7	0
19	3574	89.8	0
19	3574	89.9	0
19	3574	90	0
19	3574	90.1	0
19	3574	90.2	0
19	3574	90.3	0
19	3574	90.4	0
19	3574	90.5	0
19	3574	90.6	0
19	3574	90.7	0
19	3574	90.8	0
19	3574	90.9	0
19	3574	91	0
19	3574	91.1	0
19	3574	91.2	0
19	3574	91.3	0
19	3574	91.4	0
19	3574	91.5	0
19	3574	91.6	0
19	3574	91.7	0
19	3574	91.8	0
19	3574	91.9	0
19	3574	92	0
19	3574	92.1	0
19	3574	92.2	0
19	3574	92.3	0
19	3574	92.4	0
19	3574	92.5	0
19	3574	92.6	0
19	3574	92.7	0
19	3574	92.8	0
19	3574	92.9	0
19	3574	93	0
19	3574	93.1	0
19	3574	93.2	0
19	3574	93.3	0
19	3574	93.4	0
19	3574	93.5	0
19	3574	93.6	0
19	3574	93.7	0
19	3574	93.8	0
19	3574	93.9	0
19	3574	94	0
19	3574	94.1	0
19	3574	94.2	0
19	3574	94.3	0
19	4317	94.4	8000
19	4317	94.5	0
19	4317	94.6	0
19	4317	94.7	0
19	4317	94.8	0
19	4317	94.9	0
19	4317	95	0
19	4317	95.1	0
19	4317	95.2	0
19	4317	95.3	0
19	4317	95.4	0
19	4317	95.5	0
19	4317	95.6	0
19	4317	95.7	0
19	4317	95.8	0
19	4317	95.9	0
19	4317	96	0
19	4317	96.1	0
19	4317	96.2	0
19	4317	96.3	0
19	4317	96.4	0
19	4317	96.5	0
19	4317	96.6	0
19	4317	96.7	0
19	4317	96.8	0
19	4317	96.9	0
19	4317	97	0
19	4317	97.1	0
19	4317	97.2	0
19	4317	97.3	0
19	4317	97.4	0
19	4317	97.5	0
19	4317	97.6	0
19	4317	97.7	0
19	4317	97.8	0
19	4317	97.9	0
19	4317	98	0
19	4317	98.1	0
19	4317	98.2	0
19	4317	98.3	0
19	4317	98.4	0
19	4317	98.5	0
19	4317	98.6	0
19	4317	98.7	0
19	4317	98.8	0
19	4317	98.9	0
19	4317	99	0
19	4317	99.1	0
19	4317	99.2	0
19	4317	99.3	0
19	4317	99.4	0
19	4317	99.5	0
19	4317	99.6	0
19	4317	99.7	0
19	4317	99.8	0
19	4317	99.9	0
19	4317	100	0
19	4317	100.1	0
19	4317	100.2	0
19	4317	100.3	0
19	4317	100.4	0
19	4317	100.5	0
19	4317	100.6	0
19	4317	100.7	0
19	4317	100.8	0
19	4317	100.9	0
19	4317	101	0
19	4317	101.1	0
19	4317	101.2	0
19	4317	101.3	0
19	4317	101.4	0
19	4317	101.5	0
19	4317	101.6	0
19	4317	101.7	0
19	4317	101.8	0
19	4317	101.9	0
19	4317	102	0
19	4317	102.1	0
19	4317	102.2	0
19	4317	102.3	0
19	4317	102.4	0
19	4317	102.5	0
19	4317	102.6	0
19	4317	102.7	0
19	4317	102.8	0
19	4317	102.9	0
19	4317	103	0
19	4317	103.1	0
19	4317	103.2	0
19	4317	103.3	0
19	4317	103.4	0
19	4317	103.5	0
19	4317	103.6	0
19	4317	103.7	0
19	4317	103.8	0
19	4317	103.9	0
19	4317	104	0
19	4317	104.1	0
19	4317	104.2	0
19	4317	104.3	0
19	4317	104.4	0
19	4317	104.5	0
19	4317	104.6	0
19	4317	104.7	0
19	4317	104.8	0
19	4317	104.9	0
19	4317	105	0
19	4317	105.1	0
19	4317	105.2	0
19	4317	105.3	0
19	4317	105.4	0
19	4317	105.5	0
19	4317	105.6	0
19	4317	105.7	0
19	4317	105.8	0
19	4317	105.9	0
19	4317	106	0
19	4317	106.1	0
19	4317	106.2	0
19	4317	106.3	0
19	4317	106.4	0
19	4317	106.5	0
19	4317	106.6	0
19	4317	106.7	0
19	4317	106.8	0
19	4317	106.9	0
19	4317	107	0
19	4317	107.1	0
19	4317	107.2	0
19	4317	107.3	0
19	4317	107.4	0
19	4317	107.5	0
19	4317	107.6	0
19	4317	107.7	0
19	4317	107.8	0
19	4317	107.9	0
19	4317	108	0
19	4317	108.1	0
19	4317	108.2	0
19	4317	108.3	0
19	4317	108.4	0
19	4317	108.5	0
19	4317	108.6	0
19	4317	108.7	0
19	4317	108.8	0
19	4317	108.9	0
19	4317	109	0
19	4317	109.1	0
19	4317	109.2	0
19	4317	109.3	0
19	4317	109.4	0
19	4317	109.5	0
19	4317	109.6	0
19	4317	109.7	0
19	4317	109.8	0
19	4317	109.9	0
19	4317	110	0
19	4317	110.1	0
19	4317	110.2	0
19	4317	110.3	0
19	4317	110.4	0
19	4317	110.5	0
19	4317	110.6	0
19	4317	110.7	0
19	4317	110.8	0
19	4317	110.9	0
19	4317	111	0
19	4317	111.1	0
19	4317	111.2	0
19	4317	111.3	0
19	4317	111.4	0
19	4317	111.5	0
19	4317	111.6	0
19	4317	111.7	0
19	4317	111.8	0
19	4317	111.9	0
19	4317	112	0
19	4317	112.1	0
19	4317	112.2	0
19	4317	112.3	0
19	4317	112.4	0
19	4317	112.5	0
19	4317	112.6	0
19	4317	112.7	0
19	4317	112.8	0
19	4317	112.9	0
19	4317	113	0
19	4317	113.1	0
19	4317	113.2	0
19	4317	113.3	0
19	4317	113.4	0
19	4317	113.5	0
19	4317	113.6	0
19	4317	113.7	0
19	4317	113.8	0
19	4317	113.9	0
19	4317	114	0
19	4317	114.1	0
19	4317	114.2	0
19	4317	114.3	0
19	4317	114.4	0
19	4317	114.5	0
19	4317	114.6	0
19	4317	114.7	0
19	4317	114.8	0
19	4317	114.9	0
19	4317	115	0
19	4803	115.1	8000
19	4803	115.2	0
19	4803	115.3	0
19	4803	115.4	0
19	4803	115.5	0
19	4803	115.6	0
19	4803	115.7	0
19	4803	115.8	0
19	4803	115.9	0
19	4803	116	0
19	4803	116.1	0
19	4803	116.2	0
19	4803	116.3	0
19	4803	116.4	0
19	4803	116.5	0
19	4803	116.6	0
19	4803	116.7	0
19	4803	116.8	0
19	4803	116.9	0
19	4803	117	0
19	4803	117.1	0
19	4803	117.2	0
19	4803	117.3	0
19	4803	117.4	0
19	4803	117.5	0
19	4803	117.6	0
19	4803	117.7	0
19	4803	117.8	0
19	4803	117.9	0
19	4803	118	0
19	4803	118.1	0
19	4803	118.2	0
19	4803	118.3	0
19	4803	118.4	0
19	4803	118.5	0
19	4803	118.6	0
19	4803	118.7	0
19	4803	118.8	0
19	4803	118.9	0
19	4803	119	0
19	4803	119.1	0
19	4803	119.2	0
19	4803	119.3	0
19	4803	119.4	0
19	4803	119.5	0
19	4803	119.6	0
19	4803	119.7	0
19	4803	119.8	0
19	4803	119.9	0
19	4803	120	0
19	4803	120.1	0
19	4803	120.2	0
19	4803	120.3	0
19	4803	120.4	0
19	4803	120.5	0
19	4803	120.6	0
19	4803	120.7	0
19	4803	120.8	0
19	4803	120.9	0
19	4803	121	0
19	4803	121.1	0
19	4803	121.2	0
19	4803	121.3	0
19	4803	121.4	0
19	4803	121.5	0
19	4803	121.6	0
19	4803	121.7	0
19	4803	121.8	0
19	4803	121.9	0
19	4803	122	0
19	4803	122.1	0
19	4803	122.2	0
19	4803	122.3	0
19	4803	122.4	0
19	4803	122.5	0
19	4803	122.6	0
19	4803	122.7	0
19	4803	122.8	0
19	4803	122.9	0
19	4803	123	0
19	4803	123.1	0
19	4803	123.2	0
19	4803	123.3	0
19	4803	123.4	0
19	4803	123.5	0
19	4803	123.6	0
19	4803	123.7	0
19	4803	123.8	0
19	4803	123.9	0
19	4803	124	0
19	4803	124.1	0
19	4803	124.2	0
19	4803	124.3	0
19	4803	124.4	0
19	4803	124.5	0
19	4803	124.6	0
19	4803	124.7	0
19	4803	124.8	0
19	4803	124.9	0
19	4803	125	0
19	4803	125.1	0
19	4803	125.2	0
19	4803	125.3	0
19	4803	125.4	0
19	4803	125.5	0
19	4803	125.6	0
19	4803	125.7	0
19	4803	125.8	0
19	4803	125.9	0
19	4803	126	0
19	4803	126.1	0
19	4803	126.2	0
19	4803	126.3	0
19	4803	126.4	0
19	4803	126.5	0
19	4803	126.6	0
19	4803	126.7	0
19	4803	126.8	0
19	4803	126.9	0
19	4803	127	0
19	4803	127.1	0
19	5924	127.2	8000
19	5924	127.3	0
19	5924	127.4	0
19	5924	127.5	0
19	5924	127.6	0
19	5924	127.7	0
19	5924	127.8	0
19	5924	127.9	0
19	5924	128	0
19	5924	128.1	0
19	5924	128.2	0
19	5924	128.3	0
19	5924	128.4	0
19	5924	128.5	0
19	5924	128.6	0
19	5924	128.7	0
19	5924	128.8	0
19	5924	128.9	0
19	5924	129	0
19	5924	129.1	0
19	5924	129.2	0
19	5924	129.3	0
19	5924	129.4	0
19	5924	129.5	0
19	5924	129.6	0
19	5924	129.7	0
19	5924	129.8	0
19	5924	129.9	0
19	5924	130	0
19	5924	130.1	0
19	5924	130.2	0
19	5924	130.3	0
19	5924	130.4	0
19	5924	130.5	0
19	5924	130.6	0
19	5924	130.7	0
19	5924	130.8	0
19	5924	130.9	0
19	5924	131	0
19	5924	131.1	0
19	5924	131.2	0
19	5924	131.3	0
19	5924	131.4	0
19	5924	131.5	0
19	5924	131.6	0
19	5924	131.7	0
19	5924	131.8	0
19	5924	131.9	0
19	5924	132	0
19	5924	132.1	0
19	5924	132.2	0
19	5924	132.3	0
19	5924	132.4	0
19	5924	132.5	0
19	5924	132.6	0
19	5924	132.7	0
19	5924	132.8	0
19	5924	132.9	0
19	5924	133	0
19	5924	133.1	0
19	5924	133.2	0
19	5924	133.3	0
19	5924	133.4	0
19	5924	133.5	0
19	5924	133.6	0
19	5924	133.7	0
19	5924	133.8	0
19	5924	133.9	0
19	5924	134	0
19	5924	134.1	0
19	5924	134.2	0
19	5924	134.3	0
19	5924	134.4	0
19	5924	134.5	0
19	5924	134.6	0
19	5924	134.7	0
19	5924	134.8	0
19	5924	134.9	0
19	5924	135	0
19	5924	135.1	0
19	5924	135.2	0
19	5924	135.3	0
19	5924	135.4	0
19	5924	135.5	0
19	5924	135.6	0
19	5924	135.7	0
19	5924	135.8	0
19	5924	135.9	0
19	5924	136	0
19	5924	136.1	0
19	5924	136.2	0
19	5924	136.3	0
19	5924	136.4	0
19	5924	136.5	0
19	5924	136.6	0
19	5924	136.7	0
19	5924	136.8	0
19	5924	136.9	0
19	5924	137	0
19	5924	137.1	0
19	5924	137.2	0
19	5924	137.3	0
19	5924	137.4	0
19	5924	137.5	0
19	5924	137.6	0
19	5924	137.7	0
19	5924	137.8	0
19	5924	137.9	0
19	5924	138	0
19	5924	138.1	0
19	5924	138.2	0
19	5924	138.3	0
19	5924	138.4	0
19	5924	138.5	0
19	5924	138.6	0
19	5924	138.7	0
19	5924	138.8	0
19	5924	138.9	0
19	5924	139	0
19	5924	139.1	0
19	5924	139.2	0
19	5924	139.3	0
19	5924	139.4	0
19	5924	139.5	0
19	5924	139.6	0
19	5924	139.7	0
19	5924	139.8	0
19	5924	139.9	0
19	5924	140	0
19	5924	140.1	0
19	5924	140.2	0
19	5924	140.3	0
19	5924	140.4	0
19	5924	140.5	0
19	5924	140.6	0
19	5924	140.7	0
19	5924	140.8	0
19	5924	140.9	0
19	5924	141	0
19	5924	141.1	0
19	5924	141.2	0
19	5924	141.3	0
19	5924	141.4	0
19	5924	141.5	0
19	5924	141.6	0
19	5924	141.7	0
19	5924	141.8	0
19	5924	141.9	0
19	5924	142	0
19	5924	142.1	0
19	5924	142.2	0
19	5924	142.3	0
19	5924	142.4	0
19	5924	142.5	0
19	5924	142.6	0
19	5924	142.7	0
19	5924	142.8	0
19	5924	142.9	0
19	5924	143	0
19	5924	143.1	0
19	5924	143.2	0
19	5924	143.3	0
19	5924	143.4	0
19	5924	143.5	0
19	5924	143.6	0
19	5924	143.7	0
19	5924	143.8	0
19	5924	143.9	0
19	5924	144	0
19	5924	144.1	0
19	5924	144.2	0
19	5924	144.3	0
19	5924	144.4	0
19	5924	144.5	0
19	5924	144.6	0
19	5924	144.7	0
19	5924	144.8	0
19	5924	144.9	0
19	5924	145	0
19	5924	145.1	0
19	5924	145.2	0
19	5924	145.3	0
19	5924	145.4	0
19	5924	145.5	0
19	5924	145.6	0
19	5924	145.7	0
19	5924	145.8	0
19	5924	145.9	0
19	5924	146	0
19	5924	146.1	0
19	5924	146.2	0
19	5924	146.3	0
19	5924	146.4	0
19	5924	146.5	0
19	5924	146.6	0
19	5924	146.7	0
19	5924	146.8	0
19	5924	146.9	0
19	5924	147	0
19	5924	147.1	0
19	5924	147.2	0
19	5924	147.3	0
19	5924	147.4	0
19	5924	147.5	0
19	5924	147.6	0
19	5924	147.7	0
19	5924	147.8	0
19	5924	147.9	0
19	5924	148	0
19	5924	148.1	0
19	5924	148.2	0
19	5924	148.3	0
19	5924	148.4	0
19	5924	148.5	0
19	5924	148.6	0
19	5924	148.7	0
19	5924	148.8	0
19	5924	148.9	0
19	5924	149	0
19	6285	149.1	8000
19	6285	149.2	0
19	6285	149.3	0
19	6285	149.4	0
19	6285	149.5	0
19	6285	149.6	0
19	6285	149.7	0
19	6285	149.8	0
19	6285	149.9	0
19	6285	150	0
19	6285	150.1	0
19	6285	150.2	0
19	6285	150.3	0
19	6285	150.4	0
19	6285	150.5	0
19	6285	150.6	0
19	6285	150.7	0
19	6285	150.8	0
19	6285	150.9	0
19	6285	151	0
19	6285	151.1	0
19	6285	151.2	0
19	6285	151.3	0
19	6285	151.4	0
19	6285	151.5	0
19	6285	151.6	0
19	6285	151.7	0
19	6285	151.8	0
19	6285	151.9	0
19	6285	152	0
19	6285	152.1	0
19	6285	152.2	0
19	6285	152.3	0
19	6285	152.4	0
19	6285	152.5	0
19	6285	152.6	0
19	6285	152.7	0
19	6285	152.8	0
19	6285	152.9	0
19	6285	153	0
19	6285	153.1	0
19	6285	153.2	0
19	6285	153.3	0
19	6285	153.4	0
19	6285	153.5	0
19	6285	153.6	0
19	6285	153.7	0
19	6285	153.8	0
19	6285	153.9	0
19	6285	154	0
19	6285	154.1	0
19	6285	154.2	0
19	6285	154.3	0
19	6285	154.4	0
19	6285	154.5	0
19	6285	154.6	0
19	6285	154.7	0
19	6285	154.8	0
19	6285	154.9	0
19	6285	155	0
19	6285	155.1	0
19	6285	155.2	0
19	6285	155.3	0
19	6285	155.4	0
19	6285	155.5	0
19	6285	155.6	0
19	6285	155.7	0
19	6285	155.8	0
19	6285	155.9	0
19	6285	156	0
19	6285	156.1	0
19	6285	156.2	0
19	6285	156.3	0
19	6285	156.4	0
19	6285	156.5	0
19	6285	156.6	0
19	6285	156.7	0
19	6285	156.8	0
19	6285	156.9	0
19	6285	157	0
19	6285	157.1	0
19	6285	157.2	0
19	6285	157.3	0
19	6285	157.4	0
19	6285	157.5	0
19	6285	157.6	0
19	6285	157.7	0
19	6285	157.8	0
19	6285	157.9	0
19	6285	158	0
19	6285	158.1	0
19	6285	158.2	0
19	6285	158.3	0
19	6285	158.4	0
19	6285	158.5	0
19	6285	158.6	0
19	6285	158.7	0
19	6285	158.8	0
19	6285	158.9	0
19	6285	159	0
19	6285	159.1	0
19	6285	159.2	0
19	6285	159.3	0
19	6285	159.4	0
19	6285	159.5	0
19	6285	159.6	0
19	6285	159.7	0
19	6285	159.8	0
19	6285	159.9	0
19	6285	160	0
19	6285	160.1	0
19	6285	160.2	0
19	6285	160.3	0
19	6285	160.4	0
19	6285	160.5	0
19	6285	160.6	0
19	6638	160.7	8000
19	6638	160.8	0
19	6638	160.9	0
19	6638	161	0
19	6638	161.1	0
19	6638	161.2	0
19	6638	161.3	0
19	6638	161.4	0
19	6638	161.5	0
19	6638	161.6	0
19	6638	161.7	0
19	6638	161.8	0
19	6638	161.9	0
19	6638	162	0
19	6638	162.1	0
19	6638	162.2	0
19	6638	162.3	0
19	6638	162.4	0
19	6638	162.5	0
19	6638	162.6	0
19	6638	162.7	0
19	6638	162.8	0
19	6638	162.9	0
19	6638	163	0
19	6638	163.1	0
19	6638	163.2	0
19	6638	163.3	0
19	6638	163.4	0
19	6638	163.5	0
19	6638	163.6	0
19	6638	163.7	0
19	6638	163.8	0
19	6638	163.9	0
19	6638	164	0
19	6638	164.1	0
19	6638	164.2	0
19	6638	164.3	0
19	6638	164.4	0
19	6638	164.5	0
19	6638	164.6	0
19	6638	164.7	0
19	6638	164.8	0
19	6638	164.9	0
19	6638	165	0
19	6638	165.1	0
19	6638	165.2	0
19	6638	165.3	0
19	6638	165.4	0
19	6638	165.5	0
19	6638	165.6	0
19	6638	165.7	0
19	6638	165.8	0
19	6638	165.9	0
19	6638	166	0
19	6638	166.1	0
19	6638	166.2	0
19	6638	166.3	0
19	6638	166.4	0
19	6638	166.5	0
19	6638	166.6	0
19	6638	166.7	0
19	6638	166.8	0
19	6638	166.9	0
19	6638	167	0
19	6638	167.1	0
19	6638	167.2	0
19	6638	167.3	0
19	6638	167.4	0
19	6638	167.5	0
19	6638	167.6	0
19	6638	167.7	0
19	6638	167.8	0
19	6638	167.9	0
19	6638	168	0
19	6638	168.1	0
19	6638	168.2	0
19	6638	168.3	0
19	6638	168.4	0
19	6638	168.5	0
19	6638	168.6	0
19	6638	168.7	0
19	6638	168.8	0
19	6638	168.9	0
19	6638	169	0
19	6638	169.1	0
19	6638	169.2	0
19	6638	169.3	0
19	6638	169.4	0
19	6638	169.5	0
19	6638	169.6	0
19	6638	169.7	0
19	6638	169.8	0
19	6792	169.9	8000
19	6792	170	0
19	6792	170.1	0
19	6792	170.2	0
19	6792	170.3	0
19	6792	170.4	0
19	6792	170.5	0
19	6792	170.6	0
19	6792	170.7	0
19	6792	170.8	0
19	6792	170.9	0
19	6792	171	0
19	6792	171.1	0
19	6792	171.2	0
19	6792	171.3	0
19	6792	171.4	0
19	6792	171.5	0
19	6792	171.6	0
19	6792	171.7	0
19	6792	171.8	0
19	6792	171.9	0
19	6792	172	0
19	7161	172.1	8000
19	7161	172.2	0
19	7161	172.3	0
19	7161	172.4	0
19	7161	172.5	0
19	7161	172.6	0
19	7161	172.7	0
19	7161	172.8	0
19	7161	172.9	0
19	7161	173	0
19	7161	173.1	0
19	7161	173.2	0
19	7161	173.3	0
19	7161	173.4	0
19	7161	173.5	0
19	7161	173.6	0
19	7161	173.7	0
19	7161	173.8	0
19	7161	173.9	0
19	7161	174	0
19	7161	174.1	0
19	7161	174.2	0
19	7161	174.3	0
19	7161	174.4	0
19	7161	174.5	0
19	7161	174.6	0
19	7161	174.7	0
19	7161	174.8	0
19	7161	174.9	0
19	7161	175	0
19	7161	175.1	0
19	7161	175.2	0
19	7161	175.3	0
19	7161	175.4	0
19	7161	175.5	0
19	7161	175.6	0
19	7161	175.7	0
19	7161	175.8	0
19	7161	175.9	0
19	7161	176	0
19	7161	176.1	0
19	7161	176.2	0
19	7161	176.3	0
19	7161	176.4	0
19	7161	176.5	0
19	7161	176.6	0
19	7161	176.7	0
19	7161	176.8	0
19	7161	176.9	0
19	7161	177	0
19	7161	177.1	0
19	7161	177.2	0
19	7161	177.3	0
19	7161	177.4	0
19	7161	177.5	0
19	7161	177.6	0
19	7161	177.7	0
19	7161	177.8	0
19	7161	177.9	0
19	7161	178	0
19	7161	178.1	0
19	7161	178.2	0
19	7161	178.3	0
19	7161	178.4	0
19	7161	178.5	0
19	7161	178.6	0
19	7161	178.7	0
19	7161	178.8	0
19	7161	178.9	0
19	7161	179	0
19	7161	179.1	0
19	7161	179.2	0
19	7161	179.3	0
19	7161	179.4	0
19	7161	179.5	0
19	7161	179.6	0
19	7161	179.7	0
19	7161	179.8	0
19	7161	179.9	0
19	7161	180	0
19	7161	180.1	0
19	7161	180.2	0
19	7161	180.3	0
19	7161	180.4	0
19	7161	180.5	0
19	7161	180.6	0
19	7161	180.7	0
19	7161	180.8	0
19	7161	180.9	0
19	7161	181	0
19	7161	181.1	0
19	7161	181.2	0
19	7161	181.3	0
19	7161	181.4	0
19	7161	181.5	0
19	7161	181.6	0
19	7161	181.7	0
19	7161	181.8	0
19	7161	181.9	0
19	7161	182	0
19	7161	182.1	0
19	7161	182.2	0
19	7161	182.3	0
19	7161	182.4	0
19	7161	182.5	0
19	7161	182.6	0
19	7161	182.7	0
19	7161	182.8	0
19	7161	182.9	0
19	7161	183	0
19	7186	183.1	8000
19	7186	183.2	0
19	7738	183.3	8000
19	7738	183.4	0
19	7738	183.5	0
19	7738	183.6	0
19	7738	183.7	0
19	7738	183.8	0
19	7738	183.9	0
19	7738	184	0
19	7738	184.1	0
19	7738	184.2	0
19	7738	184.3	0
19	7738	184.4	0
19	7738	184.5	0
19	7738	184.6	0
19	7738	184.7	0
19	7738	184.8	0
19	7738	184.9	0
19	7738	185	0
19	7738	185.1	0
19	7738	185.2	0
19	7738	185.3	0
19	7738	185.4	0
19	7738	185.5	0
19	7738	185.6	0
19	7738	185.7	0
19	7738	185.8	0
19	7738	185.9	0
19	7738	186	0
19	7738	186.1	0
19	7738	186.2	0
19	7738	186.3	0
19	7738	186.4	0
19	7738	186.5	0
19	7738	186.6	0
19	7738	186.7	0
19	7738	186.8	0
19	7738	186.9	0
19	7738	187	0
19	7738	187.1	0
19	7738	187.2	0
19	7738	187.3	0
19	7738	187.4	0
19	7738	187.5	0
19	7738	187.6	0
19	7738	187.7	0
19	7738	187.8	0
19	7738	187.9	0
19	7738	188	0
19	7738	188.1	0
19	7738	188.2	0
19	7738	188.3	0
19	7738	188.4	0
19	7738	188.5	0
19	7738	188.6	0
19	7738	188.7	0
19	7738	188.8	0
19	7738	188.9	0
19	7738	189	0
19	7738	189.1	0
19	7738	189.2	0
19	7738	189.3	0
19	7738	189.4	0
19	7738	189.5	0
19	7738	189.6	0
19	7738	189.7	0
19	7738	189.8	0
19	7738	189.9	0
19	7738	190	0
19	7738	190.1	0
19	7738	190.2	0
19	7738	190.3	0
19	7738	190.4	0
19	7738	190.5	0
19	7738	190.6	0
19	7738	190.7	0
19	7738	190.8	0
19	7738	190.9	0
19	7738	191	0
19	7738	191.1	0
19	7738	191.2	0
19	7738	191.3	0
19	7738	191.4	0
19	7738	191.5	0
19	7738	191.6	0
19	7738	191.7	0
19	7738	191.8	0
19	7738	191.9	0
19	7738	192	0
19	7738	192.1	0
19	7738	192.2	0
19	7738	192.3	0
19	7738	192.4	0
19	7738	192.5	0
19	7738	192.6	0
19	7738	192.7	0
19	7738	192.8	0
19	7738	192.9	0
19	7738	193	0
19	7738	193.1	0
19	7738	193.2	0
19	7738	193.3	0
19	7738	193.4	0
19	7738	193.5	0
19	7738	193.6	0
19	7738	193.7	0
19	7738	193.8	0
19	7738	193.9	0
19	7738	194	0
19	7738	194.1	0
19	7738	194.2	0
19	7738	194.3	0
19	7738	194.4	0
19	7738	194.5	0
19	7738	194.6	0
19	7738	194.7	0
19	7738	194.8	0
19	7738	194.9	0
19	7738	195	0
19	7738	195.1	0
19	7738	195.2	0
19	7738	195.3	0
19	7738	195.4	0
19	7738	195.5	0
19	7738	195.6	0
19	7738	195.7	0
19	7738	195.8	0
19	7738	195.9	0
19	7738	196	0
19	7738	196.1	0
19	7738	196.2	0
19	7738	196.3	0
19	7738	196.4	0
19	7738	196.5	0
19	7738	196.6	0
19	7738	196.7	0
19	7738	196.8	0
19	8103	196.9	8000
19	8103	197	0
19	8103	197.1	0
19	8103	197.2	0
19	8103	197.3	0
19	8103	197.4	0
19	8103	197.5	0
19	8103	197.6	0
19	8103	197.7	0
19	8103	197.8	0
19	8103	197.9	0
19	8103	198	0
19	8103	198.1	0
19	8103	198.2	0
19	8103	198.3	0
19	8103	198.4	0
19	8103	198.5	0
19	8103	198.6	0
19	8103	198.7	0
19	8103	198.8	0
19	8103	198.9	0
19	8103	199	0
19	8103	199.1	0
19	8103	199.2	0
19	8103	199.3	0
19	8103	199.4	0
19	8103	199.5	0
19	8103	199.6	0
19	8103	199.7	0
19	8103	199.8	0
19	8103	199.9	0
19	8103	200	0
19	8103	200.1	0
19	8103	200.2	0
19	8103	200.3	0
19	8103	200.4	0
19	8103	200.5	0
19	8103	200.6	0
19	8103	200.7	0
19	8103	200.8	0
19	8103	200.9	0
19	8103	201	0
19	8103	201.1	0
19	8103	201.2	0
19	8103	201.3	0
19	8103	201.4	0
19	8103	201.5	0
19	8103	201.6	0
19	8103	201.7	0
19	8103	201.8	0
19	8103	201.9	0
19	8103	202	0
19	8103	202.1	0
19	8103	202.2	0
19	8103	202.3	0
19	8103	202.4	0
19	8103	202.5	0
19	8103	202.6	0
19	8103	202.7	0
19	8103	202.8	0
19	8103	202.9	0
19	8103	203	0
19	8103	203.1	0
19	8103	203.2	0
19	8103	203.3	0
19	8103	203.4	0
19	8103	203.5	0
19	8103	203.6	0
19	8103	203.7	0
19	8103	203.8	0
19	8103	203.9	0
19	8103	204	0
19	8103	204.1	0
19	8103	204.2	0
19	8103	204.3	0
19	8103	204.4	0
19	8646	204.5	8000
19	8646	204.6	0
19	8646	204.7	0
19	8646	204.8	0
19	8646	204.9	0
19	8646	205	0
19	8646	205.1	0
19	8646	205.2	0
19	8646	205.3	0
19	8646	205.4	0
19	8646	205.5	0
19	8646	205.6	0
19	8646	205.7	0
19	8646	205.8	0
19	8646	205.9	0
19	8646	206	0
19	8646	206.1	0
19	8646	206.2	0
19	8646	206.3	0
19	8646	206.4	0
19	8646	206.5	0
19	8646	206.6	0
19	8646	206.7	0
19	8646	206.8	0
19	8646	206.9	0
19	8646	207	0
19	8646	207.1	0
19	8646	207.2	0
19	8646	207.3	0
19	8646	207.4	0
19	8646	207.5	0
19	8646	207.6	0
19	8646	207.7	0
19	8646	207.8	0
19	8646	207.9	0
19	8646	208	0
19	8646	208.1	0
19	8646	208.2	0
19	8646	208.3	0
19	8646	208.4	0
19	8646	208.5	0
19	8646	208.6	0
19	8646	208.7	0
19	8646	208.8	0
19	8646	208.9	0
19	8646	209	0
19	8646	209.1	0
19	8646	209.2	0
19	8646	209.3	0
19	8646	209.4	0
19	8646	209.5	0
19	8646	209.6	0
19	8646	209.7	0
19	8646	209.8	0
19	8646	209.9	0
19	8646	210	0
19	8646	210.1	0
19	8646	210.2	0
19	8646	210.3	0
19	8646	210.4	0
19	8646	210.5	0
19	8646	210.6	0
19	8646	210.7	0
19	8646	210.8	0
19	8646	210.9	0
19	8646	211	0
19	8646	211.1	0
19	8646	211.2	0
19	8646	211.3	0
19	8646	211.4	0
19	8646	211.5	0
19	8646	211.6	0
19	8646	211.7	0
19	8646	211.8	0
19	8646	211.9	0
19	8646	212	0
19	8646	212.1	0
19	8646	212.2	0
19	8646	212.3	0
19	8646	212.4	0
19	8646	212.5	0
19	8646	212.6	0
19	8646	212.7	0
19	8646	212.8	0
19	8646	212.9	0
19	8646	213	0
19	8646	213.1	0
19	8646	213.2	0
19	8646	213.3	0
19	8646	213.4	0
19	8646	213.5	0
19	8646	213.6	0
19	8646	213.7	0
19	8646	213.8	0
19	8646	213.9	0
19	8646	214	0
19	8646	214.1	0
19	8646	214.2	0
19	8646	214.3	0
19	8646	214.4	0
19	8646	214.5	0
19	8646	214.6	0
19	8646	214.7	0
19	8646	214.8	0
19	8646	214.9	0
19	8646	215	0
19	8646	215.1	0
19	8646	215.2	0
19	8646	215.3	0
19	8646	215.4	0
19	8646	215.5	0
19	8646	215.6	0
19	8646	215.7	0
19	8646	215.8	0
19	8646	215.9	0
19	8646	216	0
19	8646	216.1	0
19	8646	216.2	0
19	8646	216.3	0
19	8646	216.4	0
19	8646	216.5	0
19	8646	216.6	0
19	8646	216.7	0
19	8646	216.8	0
19	8646	216.9	0
19	8646	217	0
19	8646	217.1	0
19	8646	217.2	0
19	8646	217.3	0
19	8646	217.4	0
19	8646	217.5	0
19	8646	217.6	0
19	8646	217.7	0
19	8646	217.8	0
19	8646	217.9	0
19	8646	218	0
19	8646	218.1	0
19	8646	218.2	0
19	8646	218.3	0
19	8748	218.4	8000
19	8748	218.5	0
19	8748	218.6	0
19	8748	218.7	0
19	8748	218.8	0
19	8748	218.9	0
19	8748	219	0
19	8748	219.1	0
19	8748	219.2	0
19	8748	219.3	0
19	8748	219.4	0
19	8748	219.5	0
19	8748	219.6	0
19	8748	219.7	0
19	8748	219.8	0
19	8748	219.9	0
19	8748	220	0
19	8748	220.1	0
19	8748	220.2	0
19	8748	220.3	0
19	8748	220.4	0
19	8748	220.5	0
19	8748	220.6	0
19	8748	220.7	0
19	8748	220.8	0
19	8748	220.9	0
19	8945	221	8000
19	8945	221.1	0
19	8945	221.2	0
19	8945	221.3	0
19	8945	221.4	0
19	8945	221.5	0
19	8945	221.6	0
19	8945	221.7	0
19	8945	221.8	0
19	8945	221.9	0
19	8945	222	0
19	8945	222.1	0
19	8945	222.2	0
19	8945	222.3	0
19	8945	222.4	0
19	8945	222.5	0
19	8945	222.6	0
19	8945	222.7	0
19	8945	222.8	0
19	8945	222.9	0
19	8945	223	0
19	8945	223.1	0
19	8945	223.2	0
19	8945	223.3	0
19	8945	223.4	0
19	8945	223.5	0
19	8945	223.6	0
19	8945	223.7	0
19	8945	223.8	0
19	8945	223.9	0
19	8945	224	0
19	8945	224.1	0
19	8945	224.2	0
19	8945	224.3	0
19	8945	224.4	0
19	8945	224.5	0
19	8945	224.6	0
19	8945	224.7	0
19	8945	224.8	0
19	8945	224.9	0
19	8945	225	0
19	8945	225.1	0
19	8945	225.2	0
19	8945	225.3	0
19	8945	225.4	0
19	8945	225.5	0
19	8945	225.6	0
19	8945	225.7	0
19	8945	225.8	0
19	8945	225.9	0
19	8945	226	0
19	8945	226.1	0
19	8945	226.2	0
19	9263	226.3	8000
19	9263	226.4	0
19	9263	226.5	0
19	9263	226.6	0
19	9263	226.7	0
19	9263	226.8	0
19	9263	226.9	0
19	9263	227	0
19	9263	227.1	0
19	9263	227.2	0
19	9263	227.3	0
19	9263	227.4	0
19	9263	227.5	0
19	9263	227.6	0
19	9263	227.7	0
19	9263	227.8	0
19	9263	227.9	0
19	9263	228	0
19	9263	228.1	0
19	9263	228.2	0
19	9263	228.3	0
19	9263	228.4	0
19	9263	228.5	0
19	9263	228.6	0
19	9263	228.7	0
19	9263	228.8	0
19	9263	228.9	0
19	9263	229	0
19	9263	229.1	0
19	9263	229.2	0
19	9263	229.3	0
19	9263	229.4	0
19	9263	229.5	0
19	9263	229.6	0
19	9263	229.7	0
19	9263	229.8	0
19	9263	229.9	0
19	9263	230	0
19	9263	230.1	0
19	9263	230.2	0
19	9263	230.3	0
19	9263	230.4	0
19	9263	230.5	0
19	9263	230.6	0
19	9263	230.7	0
19	9263	230.8	0
19	9263	230.9	0
19	9263	231	0
19	9263	231.1	0
19	9263	231.2	0
19	9263	231.3	0
19	9263	231.4	0
19	9263	231.5	0
19	9263	231.6	0
19	9263	231.7	0
19	9263	231.8	0
19	9263	231.9	0
19	9263	232	0
19	9263	232.1	0
19	9263	232.2	0
19	9263	232.3	0
19	9263	232.4	0
19	9263	232.5	0
19	9263	232.6	0
19	9263	232.7	0
19	9263	232.8	0
19	9263	232.9	0
19	9263	233	0
19	9263	233.1	0
19	9263	233.2	0
19	9263	233.3	0
19	9263	233.4	0
19	9263	233.5	0
19	9263	233.6	0
19	9263	233.7	0
19	9263	233.8	0
19	9263	233.9	0
19	9263	234	0
19	9263	234.1	0
19	9263	234.2	0
19	9263	234.3	0
19	9263	234.4	0
19	9263	234.5	0
19	9263	234.6	0
19	9263	234.7	0
19	9263	234.8	0
19	9263	234.9	0
19	9263	235	0
19	9263	235.1	0
19	9263	235.2	0
19	9263	235.3	0
19	9263	235.4	0
19	9263	235.5	0
19	9263	235.6	0
19	9263	235.7	0
19	9263	235.8	0
19	9263	235.9	0
19	9455	236	8000
19	9455	236.1	0
19	9455	236.2	0
19	9455	236.3	0
19	9455	236.4	0
19	9455	236.5	0
19	9455	236.6	0
19	9455	236.7	0
19	9455	236.8	0
19	9455	236.9	0
19	9455	237	0
19	9455	237.1	0
19	9455	237.2	0
19	9455	237.3	0
19	9455	237.4	0
19	9455	237.5	0
19	9455	237.6	0
19	9455	237.7	0
19	9455	237.8	0
19	9455	237.9	0
19	9455	238	0
19	9455	238.1	0
19	9455	238.2	0
19	9455	238.3	0
19	9455	238.4	0
19	9455	238.5	0
19	9455	238.6	0
19	9455	238.7	0
19	9455	238.8	0
19	9455	238.9	0
19	9455	239	0
19	9455	239.1	0
19	9455	239.2	0
19	9455	239.3	0
19	9455	239.4	0
19	9455	239.5	0
19	9455	239.6	0
19	9455	239.7	0
19	9455	239.8	0
19	9455	239.9	0
19	9455	240	0
19	9455	240.1	0
19	9455	240.2	0
19	9455	240.3	0
19	9455	240.4	0
19	9455	240.5	0
19	9455	240.6	0
19	9455	240.7	0
19	9455	240.8	0
19	9455	240.9	0
19	9455	241	0
19	9455	241.1	0
19	9455	241.2	0
19	9455	241.3	0
19	9455	241.4	0
19	9455	241.5	0
19	10152	241.6	8000
19	10152	241.7	0
19	10152	241.8	0
19	10152	241.9	0
19	10152	242	0
19	10152	242.1	0
19	10152	242.2	0
19	10152	242.3	0
19	10152	242.4	0
19	10152	242.5	0
19	10152	242.6	0
19	10152	242.7	0
19	10152	242.8	0
19	10152	242.9	0
19	10152	243	0
19	10152	243.1	0
19	10152	243.2	0
19	10152	243.3	0
19	10152	243.4	0
19	10152	243.5	0
19	10152	243.6	0
19	10152	243.7	0
19	10152	243.8	0
19	10152	243.9	0
19	10152	244	0
19	10152	244.1	0
19	10152	244.2	0
19	10152	244.3	0
19	10152	244.4	0
19	10152	244.5	0
19	10152	244.6	0
19	10152	244.7	0
19	10152	244.8	0
19	10152	244.9	0
19	10152	245	0
19	10152	245.1	0
19	10152	245.2	0
19	10152	245.3	0
19	10152	245.4	0
19	10152	245.5	0
19	10152	245.6	0
19	10152	245.7	0
19	10152	245.8	0
19	10152	245.9	0
19	10152	246	0
19	10152	246.1	0
19	10152	246.2	0
19	10152	246.3	0
19	10152	246.4	0
19	10152	246.5	0
19	10152	246.6	0
19	10152	246.7	0
19	10152	246.8	0
19	10152	246.9	0
19	10152	247	0
19	10152	247.1	0
19	10152	247.2	0
19	10152	247.3	0
19	10152	247.4	0
19	10152	247.5	0
19	10152	247.6	0
19	10152	247.7	0
19	10152	247.8	0
19	10152	247.9	0
19	10152	248	0
19	10152	248.1	0
19	10152	248.2	0
19	10152	248.3	0
19	10152	248.4	0
19	10152	248.5	0
19	10152	248.6	0
19	10152	248.7	0
19	10152	248.8	0
19	10152	248.9	0
19	10152	249	0
19	10152	249.1	0
19	10152	249.2	0
19	10152	249.3	0
19	10152	249.4	0
19	10152	249.5	0
19	10152	249.6	0
19	10152	249.7	0
19	10152	249.8	0
19	10152	249.9	0
19	10152	250	0
19	10152	250.1	0
19	10152	250.2	0
19	10152	250.3	0
19	10152	250.4	0
19	10152	250.5	0
19	10152	250.6	0
19	10152	250.7	0
19	10152	250.8	0
19	10152	250.9	0
19	10152	251	0
19	10152	251.1	0
19	10152	251.2	0
19	10152	251.3	0
19	10152	251.4	0
19	10152	251.5	0
19	10152	251.6	0
19	10152	251.7	0
19	10152	251.8	0
19	10152	251.9	0
19	10152	252	0
19	10152	252.1	0
19	10152	252.2	0
19	10152	252.3	0
19	10152	252.4	0
19	10152	252.5	0
19	10152	252.6	0
19	10152	252.7	0
19	10152	252.8	0
19	10152	252.9	0
19	10152	253	0
19	10152	253.1	0
19	10152	253.2	0
19	10152	253.3	0
19	10152	253.4	0
19	10152	253.5	0
19	10152	253.6	0
19	10152	253.7	0
19	10152	253.8	0
19	10152	253.9	0
19	10152	254	0
19	10152	254.1	0
19	10152	254.2	0
19	10152	254.3	0
19	10152	254.4	0
19	10152	254.5	0
19	10152	254.6	0
19	10152	254.7	0
19	10152	254.8	0
19	10152	254.9	0
19	10152	255	0
19	10152	255.1	0
19	10152	255.2	0
19	10152	255.3	0
19	10152	255.4	0
19	10152	255.5	0
19	10152	255.6	0
19	10152	255.7	0
19	10152	255.8	0
19	10152	255.9	0
19	10152	256	0
19	10152	256.1	0
19	10152	256.2	0
19	10152	256.3	0
19	10152	256.4	0
19	10152	256.5	0
19	10152	256.6	0
19	10152	256.7	0
19	10152	256.8	0
19	10152	256.9	0
19	10152	257	0
19	10152	257.1	0
19	10152	257.2	0
19	10152	257.3	0
19	10152	257.4	0
19	10152	257.5	0
19	10152	257.6	0
19	10152	257.7	0
19	10152	257.8	0
19	10152	257.9	0
19	10152	258	0
19	10152	258.1	0
19	10152	258.2	0
19	10152	258.3	0
19	10152	258.4	0
19	10152	258.5	0
19	10152	258.6	0
19	10152	258.7	0
19	10152	258.8	0
19	10152	258.9	0
19	10152	259	0
19	10152	259.1	0
19	10152	259.2	0
19	10152	259.3	0
19	10152	259.4	0
19	10152	259.5	0
19	10152	259.6	0
19	10152	259.7	0
19	10152	259.8	0
19	10152	259.9	0
19	10944	260	8000
19	10944	260.1	0
19	10944	260.2	0
19	10944	260.3	0
19	10944	260.4	0
19	10944	260.5	0
19	10944	260.6	0
19	10944	260.7	0
19	10944	260.8	0
19	10944	260.9	0
19	10944	261	0
19	10944	261.1	0
19	10944	261.2	0
19	10944	261.3	0
19	10944	261.4	0
19	10944	261.5	0
19	10944	261.6	0
19	10944	261.7	0
19	10944	261.8	0
19	10944	261.9	0
19	10944	262	0
19	10944	262.1	0
19	10944	262.2	0
19	10944	262.3	0
19	10944	262.4	0
19	10944	262.5	0
19	10944	262.6	0
19	10944	262.7	0
19	10944	262.8	0
19	10944	262.9	0
19	10944	263	0
19	10944	263.1	0
19	10944	263.2	0
19	10944	263.3	0
19	10944	263.4	0
19	10944	263.5	0
19	10944	263.6	0
19	10944	263.7	0
19	10944	263.8	0
19	10944	263.9	0
19	10944	264	0
19	10944	264.1	0
19	10944	264.2	0
19	10944	264.3	0
19	10944	264.4	0
19	10944	264.5	0
19	10944	264.6	0
19	10944	264.7	0
19	10944	264.8	0
19	10944	264.9	0
19	10944	265	0
19	10944	265.1	0
19	10944	265.2	0
19	10944	265.3	0
19	10944	265.4	0
19	10944	265.5	0
19	10944	265.6	0
19	10944	265.7	0
19	10944	265.8	0
19	10944	265.9	0
19	10944	266	0
19	10944	266.1	0
19	10944	266.2	0
19	10944	266.3	0
19	10944	266.4	0
19	10944	266.5	0
19	10944	266.6	0
19	10944	266.7	0
19	10944	266.8	0
19	10944	266.9	0
19	10944	267	0
19	10944	267.1	0
19	10944	267.2	0
19	10944	267.3	0
19	10944	267.4	0
19	10944	267.5	0
19	10944	267.6	0
19	10944	267.7	0
19	10944	267.8	0
19	10944	267.9	0
19	10944	268	0
19	10944	268.1	0
19	10944	268.2	0
19	10944	268.3	0
19	10944	268.4	0
19	10944	268.5	0
19	10944	268.6	0
19	10944	268.7	0
19	10944	268.8	0
19	10944	268.9	0
19	10944	269	0
19	10944	269.1	0
19	10944	269.2	0
19	10944	269.3	0
19	10944	269.4	0
19	10944	269.5	0
19	10944	269.6	0
19	10944	269.7	0
19	10944	269.8	0
19	10944	269.9	0
19	10944	270	0
19	10944	270.1	0
19	10944	270.2	0
19	10944	270.3	0
19	10944	270.4	0
19	10944	270.5	0
19	10944	270.6	0
19	10944	270.7	0
19	10944	270.8	0
19	10944	270.9	0
19	10944	271	0
19	10944	271.1	0
19	10944	271.2	0
19	10944	271.3	0
19	10944	271.4	0
19	10944	271.5	0
19	10944	271.6	0
19	10944	271.7	0
19	10944	271.8	0
19	10944	271.9	0
19	10944	272	0
19	10944	272.1	0
19	10944	272.2	0
19	10944	272.3	0
19	10944	272.4	0
19	10944	272.5	0
19	10944	272.6	0
19	10944	272.7	0
19	10944	272.8	0
19	10944	272.9	0
19	10944	273	0
19	10944	273.1	0
19	10944	273.2	0
19	10944	273.3	0
19	10944	273.4	0
19	10944	273.5	0
19	10944	273.6	0
19	10944	273.7	0
19	10944	273.8	0
19	10944	273.9	0
19	10944	274	0
19	10944	274.1	0
19	10944	274.2	0
19	10944	274.3	0
19	10944	274.4	0
19	10944	274.5	0
19	10944	274.6	0
19	10944	274.7	0
19	10944	274.8	0
19	10944	274.9	0
19	10944	275	0
19	10944	275.1	0
19	10944	275.2	0
19	10944	275.3	0
19	10944	275.4	0
19	10944	275.5	0
19	10944	275.6	0
19	10944	275.7	0
19	10944	275.8	0
19	10944	275.9	0
19	10944	276	0
19	10944	276.1	0
19	10944	276.2	0
19	10944	276.3	0
19	10944	276.4	0
19	10944	276.5	0
19	10944	276.6	0
19	10944	276.7	0
19	10944	276.8	0
19	10944	276.9	0
19	10944	277	0
19	10944	277.1	0
19	10944	277.2	0
19	10944	277.3	0
19	10944	277.4	0
19	10944	277.5	0
19	10944	277.6	0
19	10944	277.7	0
19	10944	277.8	0
19	10944	277.9	0
19	10944	278	0
19	10944	278.1	0
19	10944	278.2	0
19	11429	278.3	8000
19	11429	278.4	0
19	11429	278.5	0
19	11429	278.6	0
19	11429	278.7	0
19	11429	278.8	0
19	11429	278.9	0
19	11429	279	0
19	11429	279.1	0
19	11429	279.2	0
19	11429	279.3	0
19	11429	279.4	0
19	11429	279.5	0
19	11429	279.6	0
19	11429	279.7	0
19	11429	279.8	0
19	11429	279.9	0
19	11429	280	0
19	11429	280.1	0
19	11429	280.2	0
19	11429	280.3	0
19	11429	280.4	0
19	11429	280.5	0
19	11429	280.6	0
19	11429	280.7	0
19	11429	280.8	0
19	11429	280.9	0
19	11429	281	0
19	11429	281.1	0
19	11429	281.2	0
19	11429	281.3	0
19	11429	281.4	0
19	11429	281.5	0
19	11429	281.6	0
19	11429	281.7	0
19	11429	281.8	0
19	11429	281.9	0
19	11429	282	0
19	11429	282.1	0
19	11429	282.2	0
19	11429	282.3	0
19	11429	282.4	0
19	11429	282.5	0
19	11429	282.6	0
19	11429	282.7	0
19	11429	282.8	0
19	11429	282.9	0
19	11429	283	0
19	11429	283.1	0
19	11429	283.2	0
19	11429	283.3	0
19	11429	283.4	0
19	11429	283.5	0
19	11429	283.6	0
19	11429	283.7	0
19	11429	283.8	0
19	11429	283.9	0
19	11429	284	0
19	11429	284.1	0
19	11429	284.2	0
19	11429	284.3	0
19	11429	284.4	0
19	11429	284.5	0
19	11429	284.6	0
19	11429	284.7	0
19	11429	284.8	0
19	11429	284.9	0
19	11429	285	0
19	11429	285.1	0
19	11429	285.2	0
19	11429	285.3	0
19	11429	285.4	0
19	11429	285.5	0
19	11429	285.6	0
19	11429	285.7	0
19	11429	285.8	0
19	11429	285.9	0
19	11429	286	0
19	11429	286.1	0
19	11429	286.2	0
19	11429	286.3	0
19	11429	286.4	0
19	11429	286.5	0
19	11429	286.6	0
19	11429	286.7	0
19	11429	286.8	0
19	11429	286.9	0
19	11429	287	0
19	11429	287.1	0
19	11429	287.2	0
19	11429	287.3	0
19	11429	287.4	0
19	11429	287.5	0
19	11429	287.6	0
19	11429	287.7	0
19	11429	287.8	0
19	11429	287.9	0
19	11429	288	0
19	11429	288.1	0
19	11429	288.2	0
19	11429	288.3	0
19	11429	288.4	0
19	11429	288.5	0
19	11429	288.6	0
19	11429	288.7	0
19	11429	288.8	0
19	11429	288.9	0
19	11429	289	0
19	11429	289.1	0
19	11429	289.2	0
19	11429	289.3	0
19	11429	289.4	0
19	11429	289.5	0
19	11429	289.6	0
19	11429	289.7	0
19	11429	289.8	0
19	11429	289.9	0
19	11429	290	0
19	11429	290.1	0
19	11429	290.2	0
19	12010	290.3	8000
19	12010	290.4	0
19	12010	290.5	0
19	12010	290.6	0
19	12010	290.7	0
19	12010	290.8	0
19	12010	290.9	0
19	12010	291	0
19	12010	291.1	0
19	12010	291.2	0
19	12010	291.3	0
19	12010	291.4	0
19	12010	291.5	0
19	12010	291.6	0
19	12010	291.7	0
19	12010	291.8	0
19	12010	291.9	0
19	12010	292	0
19	12010	292.1	0
19	12010	292.2	0
19	12010	292.3	0
19	12010	292.4	0
19	12010	292.5	0
19	12010	292.6	0
19	12010	292.7	0
19	12010	292.8	0
19	12010	292.9	0
19	12010	293	0
19	12010	293.1	0
19	12010	293.2	0
19	12010	293.3	0
19	12010	293.4	0
19	12010	293.5	0
19	12010	293.6	0
19	12010	293.7	0
19	12010	293.8	0
19	12010	293.9	0
19	12010	294	0
19	12010	294.1	0
19	12010	294.2	0
19	12010	294.3	0
19	12010	294.4	0
19	12010	294.5	0
19	12010	294.6	0
19	12010	294.7	0
19	12010	294.8	0
19	12010	294.9	0
19	12010	295	0
19	12010	295.1	0
19	12010	295.2	0
19	12010	295.3	0
19	12010	295.4	0
19	12010	295.5	0
19	12010	295.6	0
19	12010	295.7	0
19	12010	295.8	0
19	12010	295.9	0
19	12010	296	0
19	12010	296.1	0
19	12010	296.2	0
19	12010	296.3	0
19	12010	296.4	0
19	12010	296.5	0
19	12010	296.6	0
19	12010	296.7	0
19	12010	296.8	0
19	12010	296.9	0
19	12010	297	0
19	12010	297.1	0
19	12010	297.2	0
19	12010	297.3	0
19	12010	297.4	0
19	12010	297.5	0
19	12010	297.6	0
19	12010	297.7	0
19	12010	297.8	0
19	12010	297.9	0
19	12010	298	0
19	12010	298.1	0
19	12010	298.2	0
19	12010	298.3	0
19	12010	298.4	0
19	12010	298.5	0
19	12010	298.6	0
19	12010	298.7	0
19	12010	298.8	0
19	12010	298.9	0
19	12010	299	0
19	12010	299.1	0
19	12010	299.2	0
19	12010	299.3	0
19	12010	299.4	0
19	12010	299.5	0
19	12010	299.6	0
19	12010	299.7	0
19	12010	299.8	0
19	12010	299.9	0
19	12010	300	0
19	12010	300.1	0
19	12010	300.2	0
19	12010	300.3	0
19	12010	300.4	0
19	12010	300.5	0
19	12010	300.6	0
19	12010	300.7	0
19	12010	300.8	0
19	12010	300.9	0
19	12010	301	0
19	12010	301.1	0
19	12010	301.2	0
19	12010	301.3	0
19	12010	301.4	0
19	12010	301.5	0
19	12010	301.6	0
19	12010	301.7	0
19	12010	301.8	0
19	12010	301.9	0
19	12010	302	0
19	12010	302.1	0
19	12010	302.2	0
19	12010	302.3	0
19	12010	302.4	0
19	12010	302.5	0
19	12010	302.6	0
19	12010	302.7	0
19	12010	302.8	0
19	12010	302.9	0
19	12010	303	0
19	12010	303.1	0
19	12010	303.2	0
19	12010	303.3	0
19	12010	303.4	0
19	12010	303.5	0
19	12010	303.6	0
19	12010	303.7	0
19	12010	303.8	0
19	12010	303.9	0
19	12010	304	0
19	12010	304.1	0
19	12010	304.2	0
19	12010	304.3	0
19	12010	304.4	0
19	12010	304.5	0
19	12010	304.6	0
19	12010	304.7	0
19	12010	304.8	0
19	12010	304.9	0
19	12010	305	0
19	12010	305.1	0
19	12010	305.2	0
19	12010	305.3	0
19	12010	305.4	0
19	12010	305.5	0
19	12010	305.6	0
19	12010	305.7	0
19	12010	305.8	0
19	12010	305.9	0
19	12010	306	0
19	12010	306.1	0
19	12010	306.2	0
19	12010	306.3	0
19	12010	306.4	0
19	12010	306.5	0
19	12010	306.6	0
19	12010	306.7	0
19	12010	306.8	0
19	12010	306.9	0
19	12010	307	0
19	12010	307.1	0
19	12246	307.2	8000
19	12246	307.3	0
19	12246	307.4	0
19	12246	307.5	0
19	12246	307.6	0
19	12246	307.7	0
19	12246	307.8	0
19	12246	307.9	0
19	12246	308	0
19	12246	308.1	0
19	12246	308.2	0
19	12246	308.3	0
19	12246	308.4	0
19	12246	308.5	0
19	12246	308.6	0
19	12246	308.7	0
19	12246	308.8	0
19	12246	308.9	0
19	12246	309	0
19	12246	309.1	0
19	12246	309.2	0
19	12246	309.3	0
19	12246	309.4	0
19	12246	309.5	0
19	12246	309.6	0
19	12246	309.7	0
19	12246	309.8	0
19	12246	309.9	0
19	12246	310	0
19	12246	310.1	0
19	12246	310.2	0
19	12246	310.3	0
19	12246	310.4	0
19	12246	310.5	0
19	12246	310.6	0
19	12246	310.7	0
19	12246	310.8	0
19	12246	310.9	0
19	12246	311	0
19	12246	311.1	0
19	12246	311.2	0
19	12246	311.3	0
19	12246	311.4	0
19	12246	311.5	0
19	12246	311.6	0
19	12246	311.7	0
19	12246	311.8	0
19	12246	311.9	0
19	12246	312	0
19	12246	312.1	0
19	12246	312.2	0
19	12246	312.3	0
19	12246	312.4	0
19	12246	312.5	0
19	12246	312.6	0
19	12472	312.7	8000
19	12472	312.8	0
19	12472	312.9	0
19	12472	313	0
19	12472	313.1	0
19	12472	313.2	0
19	12472	313.3	0
19	12472	313.4	0
19	12472	313.5	0
19	12472	313.6	0
19	12472	313.7	0
19	12472	313.8	0
19	12472	313.9	0
19	12472	314	0
19	12472	314.1	0
19	12472	314.2	0
19	12472	314.3	0
19	12472	314.4	0
19	12472	314.5	0
19	12472	314.6	0
19	12472	314.7	0
19	12472	314.8	0
19	12472	314.9	0
19	12472	315	0
19	12472	315.1	0
19	12472	315.2	0
19	12472	315.3	0
19	12472	315.4	0
19	12472	315.5	0
19	12472	315.6	0
19	12472	315.7	0
19	12472	315.8	0
19	12472	315.9	0
19	12472	316	0
19	12472	316.1	0
19	12472	316.2	0
19	12472	316.3	0
19	12472	316.4	0
19	12472	316.5	0
19	12472	316.6	0
19	12472	316.7	0
19	12472	316.8	0
19	12472	316.9	0
19	12472	317	0
19	12616	317.1	8000
19	12616	317.2	0
19	12616	317.3	0
19	12616	317.4	0
19	12616	317.5	0
19	12616	317.6	0
19	12616	317.7	0
19	12616	317.8	0
19	12616	317.9	0
19	12616	318	0
19	12616	318.1	0
19	12616	318.2	0
19	12616	318.3	0
19	12616	318.4	0
19	12616	318.5	0
19	12616	318.6	0
19	12616	318.7	0
19	12616	318.8	0
19	12616	318.9	0
19	12616	319	0
19	12616	319.1	0
19	12616	319.2	0
19	12616	319.3	0
19	12616	319.4	0
19	12616	319.5	0
19	12616	319.6	0
19	12616	319.7	0
19	12616	319.8	0
19	12616	319.9	0
19	12616	320	0
19	12616	320.1	0
19	12616	320.2	0
19	12616	320.3	0
19	12616	320.4	0
19	12616	320.5	0
19	12616	320.6	0
19	12616	320.7	0
19	12616	320.8	0
19	12616	320.9	0
19	13156	321	8000
19	13156	321.1	0
19	13156	321.2	0
19	13156	321.3	0
19	13156	321.4	0
19	13156	321.5	0
19	13156	321.6	0
19	13156	321.7	0
19	13156	321.8	0
19	13156	321.9	0
19	13156	322	0
19	13156	322.1	0
19	13156	322.2	0
19	13156	322.3	0
19	13156	322.4	0
19	13156	322.5	0
19	13156	322.6	0
19	13156	322.7	0
19	13156	322.8	0
19	13156	322.9	0
19	13156	323	0
19	13156	323.1	0
19	13156	323.2	0
19	13156	323.3	0
19	13156	323.4	0
19	13156	323.5	0
19	13156	323.6	0
19	13156	323.7	0
19	13156	323.8	0
19	13156	323.9	0
19	13156	324	0
19	13156	324.1	0
19	13156	324.2	0
19	13156	324.3	0
19	13156	324.4	0
19	13156	324.5	0
19	13156	324.6	0
19	13156	324.7	0
19	13156	324.8	0
19	13156	324.9	0
19	13156	325	0
19	13156	325.1	0
19	13156	325.2	0
19	13156	325.3	0
19	13156	325.4	0
19	13156	325.5	0
19	13156	325.6	0
19	13156	325.7	0
19	13156	325.8	0
19	13156	325.9	0
19	13156	326	0
19	13156	326.1	0
19	13156	326.2	0
19	13156	326.3	0
19	13156	326.4	0
19	13156	326.5	0
19	13156	326.6	0
19	13156	326.7	0
19	13156	326.8	0
19	13156	326.9	0
19	13156	327	0
19	13156	327.1	0
19	13156	327.2	0
19	13156	327.3	0
19	13156	327.4	0
19	13156	327.5	0
19	13156	327.6	0
19	13156	327.7	0
19	13156	327.8	0
19	13156	327.9	0
19	13156	328	0
19	13156	328.1	0
19	13156	328.2	0
19	13156	328.3	0
19	13156	328.4	0
19	13156	328.5	0
19	13156	328.6	0
19	13156	328.7	0
19	13156	328.8	0
19	13156	328.9	0
19	13156	329	0
19	13156	329.1	0
19	13156	329.2	0
19	13156	329.3	0
19	13156	329.4	0
19	13156	329.5	0
19	13156	329.6	0
19	13156	329.7	0
19	13156	329.8	0
19	13156	329.9	0
19	13156	330	0
19	13156	330.1	0
19	13156	330.2	0
19	13156	330.3	0
19	13156	330.4	0
19	13156	330.5	0
19	13156	330.6	0
19	13156	330.7	0
19	13156	330.8	0
19	13156	330.9	0
19	13156	331	0
19	13156	331.1	0
19	13156	331.2	0
19	13156	331.3	0
19	13156	331.4	0
19	13156	331.5	0
19	13156	331.6	0
19	13156	331.7	0
19	13156	331.8	0
19	13156	331.9	0
19	13156	332	0
19	13156	332.1	0
19	13156	332.2	0
19	13156	332.3	0
19	13156	332.4	0
19	13156	332.5	0
19	13156	332.6	0
19	13156	332.7	0
19	13156	332.8	0
19	13156	332.9	0
19	13156	333	0
19	13156	333.1	0
19	13156	333.2	0
19	13156	333.3	0
19	13156	333.4	0
19	13156	333.5	0
19	13156	333.6	0
19	13156	333.7	0
19	13156	333.8	0
19	13156	333.9	0
19	13156	334	0
19	13156	334.1	0
19	13156	334.2	0
19	13156	334.3	0
19	13156	334.4	0
19	13156	334.5	0
19	13156	334.6	0
19	13156	334.7	0
19	13156	334.8	0
19	13156	334.9	0
19	13156	335	0
19	13156	335.1	0
19	13156	335.2	0
19	13156	335.3	0
19	13156	335.4	0
19	13156	335.5	0
19	13156	335.6	0
19	13156	335.7	0
19	13156	335.8	0
19	13156	335.9	0
19	13156	336	0
19	13156	336.1	0
19	13156	336.2	0
19	13156	336.3	0
19	13156	336.4	0
19	13156	336.5	0
19	13156	336.6	0
19	13156	336.7	0
19	13156	336.8	0
19	13156	336.9	0
19	13156	337	0
19	13156	337.1	0
19	13156	337.2	0
19	13156	337.3	0
19	13156	337.4	0
19	13156	337.5	0
19	13156	337.6	0
19	13156	337.7	0
19	13156	337.8	0
19	13156	337.9	0
19	13523	338	8000
19	13523	338.1	0
19	13523	338.2	0
19	13523	338.3	0
19	13523	338.4	0
19	13523	338.5	0
19	13523	338.6	0
19	13523	338.7	0
19	13523	338.8	0
19	13523	338.9	0
19	13523	339	0
19	13523	339.1	0
19	13523	339.2	0
19	13523	339.3	0
19	13523	339.4	0
19	13523	339.5	0
19	13523	339.6	0
19	13523	339.7	0
19	13523	339.8	0
19	13523	339.9	0
19	13523	340	0
19	13523	340.1	0
19	13523	340.2	0
19	13523	340.3	0
19	13523	340.4	0
19	13523	340.5	0
19	13523	340.6	0
19	13523	340.7	0
19	13523	340.8	0
19	13523	340.9	0
19	13523	341	0
19	13523	341.1	0
19	13523	341.2	0
19	13523	341.3	0
19	13523	341.4	0
19	13523	341.5	0
19	13523	341.6	0
19	13523	341.7	0
19	13523	341.8	0
19	13523	341.9	0
19	13523	342	0
19	13523	342.1	0
19	13523	342.2	0
19	13523	342.3	0
19	13523	342.4	0
19	13523	342.5	0
19	13523	342.6	0
19	13523	342.7	0
19	13523	342.8	0
19	13523	342.9	0
19	13523	343	0
19	13523	343.1	0
19	13523	343.2	0
19	13523	343.3	0
19	13523	343.4	0
19	13523	343.5	0
19	13523	343.6	0
19	13523	343.7	0
19	13523	343.8	0
19	13523	343.9	0
19	13523	344	0
19	13523	344.1	0
19	13523	344.2	0
19	13523	344.3	0
19	13523	344.4	0
19	13523	344.5	0
19	13523	344.6	0
19	13523	344.7	0
19	13523	344.8	0
19	13523	344.9	0
19	13523	345	0
19	13523	345.1	0
[...]
122	137607	3499.1	0
122	137607	3499.2	0
122	137607	3499.3	0
122	137607	3499.4	0
122	137607	3499.5	0
122	137607	3499.6	0
122	137607	3499.7	0
122	137607	3499.8	0
122	137607	3499.9	0
122	137607	3500	0
122	137607	3500.1	0
122	137607	3500.2	0
122	137607	3500.3	0
122	137607	3500.4	0
122	137607	3500.5	0
122	137607	3500.6	0
122	137607	3500.7	0
122	137607	3500.8	0
122	137607	3500.9	0
122	137607	3501	0
122	137607	3501.1	0
122	137607	3501.2	0
122	137607	3501.3	0
122	137607	3501.4	0
122	137607	3501.5	0
122	137607	3501.6	0
122	137607	3501.7	0
122	137607	3501.8	0
122	137607	3501.9	0
122	137607	3502	0
122	137607	3502.1	0
122	137607	3502.2	0
122	137607	3502.3	0
122	137607	3502.4	0
122	137607	3502.5	0
122	137607	3502.6	0
122	137607	3502.7	0
122	137607	3502.8	0
122	137607	3502.9	0
122	137607	3503	0
122	137607	3503.1	0
122	137607	3503.2	0
122	137607	3503.3	0
122	137607	3503.4	0
122	137607	3503.5	0
122	137607	3503.6	0
122	137607	3503.7	0
122	137607	3503.8	0
122	137607	3503.9	0
122	137607	3504	0
122	137607	3504.1	0
122	137607	3504.2	0
122	137607	3504.3	0
122	137607	3504.4	0
122	137607	3504.5	0
122	137607	3504.6	0
122	137607	3504.7	0
122	137607	3504.8	0
122	137607	3504.9	0
122	137607	3505	0
122	137607	3505.1	0
122	137607	3505.2	0
122	137607	3505.3	0
122	137607	3505.4	0
122	137607	3505.5	0
122	137607	3505.6	0
122	137607	3505.7	0
122	137607	3505.8	0
122	137607	3505.9	0
122	137607	3506	0
122	137607	3506.1	0
122	137607	3506.2	0
122	137607	3506.3	0
122	137607	3506.4	0
122	137607	3506.5	0
122	137607	3506.6	0
122	137607	3506.7	0
122	137607	3506.8	0
122	137607	3506.9	0
122	137607	3507	0
122	137607	3507.1	0
122	137607	3507.2	0
122	137607	3507.3	0
122	137607	3507.4	0
122	137607	3507.5	0
122	137607	3507.6	0
122	137607	3507.7	0
122	137607	3507.8	0
122	137607	3507.9	0
122	137607	3508	0
122	137607	3508.1	0
122	137607	3508.2	0
122	137607	3508.3	0
122	137607	3508.4	0
122	137607	3508.5	0
122	137607	3508.6	0
122	137607	3508.7	0
122	137607	3508.8	0
122	137607	3508.9	0
122	137607	3509	0
122	137607	3509.1	0
122	137607	3509.2	0
122	137607	3509.3	0
122	137607	3509.4	0
122	137607	3509.5	0
122	137607	3509.6	0
122	137607	3509.7	0
122	137607	3509.8	0
122	137607	3509.9	0
122	137607	3510	0
122	137607	3510.1	0
122	137607	3510.2	0
122	137607	3510.3	0
122	137607	3510.4	0
122	137607	3510.5	0
122	137607	3510.6	0
122	137607	3510.7	0
122	137607	3510.8	0
122	137607	3510.9	0
122	137607	3511	0
122	137607	3511.1	0
122	137607	3511.2	0
122	137607	3511.3	0
122	137607	3511.4	0
122	137607	3511.5	0
122	137607	3511.6	0
122	137607	3511.7	0
122	137607	3511.8	0
122	137607	3511.9	0
122	137607	3512	0
122	137607	3512.1	0
122	137607	3512.2	0
122	137607	3512.3	0
122	137607	3512.4	0
122	137607	3512.5	0
122	137607	3512.6	0
122	137607	3512.7	0
122	137607	3512.8	0
122	137607	3512.9	0
122	137607	3513	0
122	137607	3513.1	0
122	137607	3513.2	0
122	137607	3513.3	0
122	137607	3513.4	0
122	137607	3513.5	0
122	137607	3513.6	0
122	137607	3513.7	0
122	137607	3513.8	0
122	137607	3513.9	0
122	137607	3514	0
122	137607	3514.1	0
122	137607	3514.2	0
122	137607	3514.3	0
122	137607	3514.4	0
122	137607	3514.5	0
122	137607	3514.6	0
122	137607	3514.7	0
122	137607	3514.8	0
122	137607	3514.9	0
122	137607	3515	0
122	137607	3515.1	0
122	137607	3515.2	0
122	137607	3515.3	0
122	137607	3515.4	0
122	137607	3515.5	0
122	137607	3515.6	0
122	137607	3515.7	0
122	137607	3515.8	0
122	137607	3515.9	0
122	137607	3516	0
122	137607	3516.1	0
122	137607	3516.2	0
122	137607	3516.3	0
122	137607	3516.4	0
122	137607	3516.5	0
122	137607	3516.6	0
122	137607	3516.7	0
122	137607	3516.8	0
122	137607	3516.9	0
122	137607	3517	0
122	137607	3517.1	0
122	137607	3517.2	0
122	137607	3517.3	0
122	137607	3517.4	0
122	137607	3517.5	0
122	137607	3517.6	0
122	137607	3517.7	0
122	137607	3517.8	0
122	137607	3517.9	0
122	137607	3518	0
122	137607	3518.1	0
122	137607	3518.2	0
122	137607	3518.3	0
122	137607	3518.4	0
122	137607	3518.5	0
122	137607	3518.6	0
122	137607	3518.7	0
122	137607	3518.8	0
122	137607	3518.9	0
122	137607	3519	0
122	137607	3519.1	0
122	137607	3519.2	0
122	137607	3519.3	0
122	137607	3519.4	0
122	137607	3519.5	0
122	137607	3519.6	0
122	137607	3519.7	0
122	137607	3519.8	0
122	137607	3519.9	0
122	137607	3520	0
122	137607	3520.1	0
122	137607	3520.2	0
122	137607	3520.3	0
122	137607	3520.4	0
122	137607	3520.5	0
122	137607	3520.6	0
122	137607	3520.7	0
122	137607	3520.8	0
122	137607	3520.9	0
122	137607	3521	0
122	137607	3521.1	0
122	137607	3521.2	0
122	137607	3521.3	0
122	137607	3521.4	0
122	137607	3521.5	0
122	137607	3521.6	0
122	137607	3521.7	0
122	137607	3521.8	0
122	137607	3521.9	0
122	137607	3522	0
122	137607	3522.1	0
122	137607	3522.2	0
122	137607	3522.3	0
122	137607	3522.4	0
122	137607	3522.5	0
122	137607	3522.6	0
122	137607	3522.7	0
122	137607	3522.8	0
122	137607	3522.9	0
122	137607	3523	0
122	137607	3523.1	0
122	137607	3523.2	0
122	137607	3523.3	0
122	137607	3523.4	0
122	137607	3523.5	0
122	137607	3523.6	0
122	137607	3523.7	0
122	137607	3523.8	0
122	137607	3523.9	0
122	137607	3524	0
122	137607	3524.1	0
122	137607	3524.2	0
122	137607	3524.3	0
122	137607	3524.4	0
122	137607	3524.5	0
122	137607	3524.6	0
122	137607	3524.7	0
122	137607	3524.8	0
122	137607	3524.9	0
122	137607	3525	0
122	137607	3525.1	0
122	137607	3525.2	0
122	137607	3525.3	0
122	137607	3525.4	0
122	137607	3525.5	0
122	137607	3525.6	0
122	137607	3525.7	0
122	137607	3525.8	0
122	137607	3525.9	0
122	137607	3526	0
122	137607	3526.1	0
122	137607	3526.2	0
122	137607	3526.3	0
122	137607	3526.4	0
122	137607	3526.5	0
122	137607	3526.6	0
122	137607	3526.7	0
122	137607	3526.8	0
122	137607	3526.9	0
122	137607	3527	0
122	137607	3527.1	0
122	137607	3527.2	0
122	137607	3527.3	0
122	137607	3527.4	0
122	137607	3527.5	0
122	137607	3527.6	0
122	137607	3527.7	0
122	137607	3527.8	0
122	137607	3527.9	0
122	137607	3528	0
122	137607	3528.1	0
122	137607	3528.2	0
122	137607	3528.3	0
122	137607	3528.4	0
122	137607	3528.5	0
122	137607	3528.6	0
122	137607	3528.7	0
122	137607	3528.8	0
122	137607	3528.9	0
122	137607	3529	0
122	137607	3529.1	0
122	137607	3529.2	0
122	137607	3529.3	0
122	137607	3529.4	0
122	137607	3529.5	0
122	137607	3529.6	0
122	137607	3529.7	0
122	137607	3529.8	0
122	137607	3529.9	0
122	137607	3530	0
122	137607	3530.1	0
122	137607	3530.2	0
122	137607	3530.3	0
122	137607	3530.4	0
122	137607	3530.5	0
122	137607	3530.6	0
122	137607	3530.7	0
122	137607	3530.8	0
122	137607	3530.9	0
122	137607	3531	0
122	137607	3531.1	0
122	137607	3531.2	0
122	137607	3531.3	0
122	137607	3531.4	0
122	137607	3531.5	0
122	137607	3531.6	0
122	137607	3531.7	0
122	137607	3531.8	0
122	137607	3531.9	0
122	137607	3532	0
122	137607	3532.1	0
122	137607	3532.2	0
122	137607	3532.3	0
122	137607	3532.4	0
122	137607	3532.5	0
122	137607	3532.6	0
122	137607	3532.7	0
122	137607	3532.8	0
122	137607	3532.9	0
122	137607	3533	0
122	137607	3533.1	0
122	137607	3533.2	0
122	137607	3533.3	0
122	137607	3533.4	0
122	137607	3533.5	0
122	137607	3533.6	0
122	137607	3533.7	0
122	137607	3533.8	0
122	137607	3533.9	0
122	137607	3534	0
122	137607	3534.1	0
122	137607	3534.2	0
122	137607	3534.3	0
122	137607	3534.4	0
122	137607	3534.5	0
122	137607	3534.6	0
122	137607	3534.7	0
122	137607	3534.8	0
122	137607	3534.9	0
122	137607	3535	0
122	137607	3535.1	0
122	137607	3535.2	0
122	137607	3535.3	0
122	137607	3535.4	0
122	137607	3535.5	0
122	137607	3535.6	0
122	137607	3535.7	0
122	137607	3535.8	0
122	137607	3535.9	0
122	137607	3536	0
122	137607	3536.1	0
122	137607	3536.2	0
122	137607	3536.3	0
122	137607	3536.4	0
122	137607	3536.5	0
122	137607	3536.6	0
122	137607	3536.7	0
122	137607	3536.8	0
122	137607	3536.9	0
122	137607	3537	0
122	137607	3537.1	0
122	137607	3537.2	0
122	137607	3537.3	0
122	137607	3537.4	0
122	137607	3537.5	0
122	137607	3537.6	0
122	137607	3537.7	0
122	137607	3537.8	0
122	137607	3537.9	0
122	137607	3538	0
122	137607	3538.1	0
122	137607	3538.2	0
122	137607	3538.3	0
122	137607	3538.4	0
122	137607	3538.5	0
122	137607	3538.6	0
122	137607	3538.7	0
122	137607	3538.8	0
122	137607	3538.9	0
122	137607	3539	0
122	137607	3539.1	0
122	137607	3539.2	0
122	137607	3539.3	0
122	137607	3539.4	0
122	137607	3539.5	0
122	137607	3539.6	0
122	137607	3539.7	0
122	137607	3539.8	0
122	137607	3539.9	0
122	137607	3540	0
122	137607	3540.1	0
122	137607	3540.2	0
122	137607	3540.3	0
122	137607	3540.4	0
122	137607	3540.5	0
122	137607	3540.6	0
122	137607	3540.7	0
122	137607	3540.8	0
122	137607	3540.9	0
122	137607	3541	0
122	137607	3541.1	0
122	137607	3541.2	0
122	137607	3541.3	0
122	137607	3541.4	0
122	137607	3541.5	0
122	137607	3541.6	0
122	137607	3541.7	0
122	137607	3541.8	0
122	137607	3541.9	0
122	137607	3542	0
122	137607	3542.1	0
122	137607	3542.2	0
122	137607	3542.3	0
122	137607	3542.4	0
122	137607	3542.5	0
122	137607	3542.6	0
122	137607	3542.7	0
122	137607	3542.8	0
122	137607	3542.9	0
122	137607	3543	0
122	137607	3543.1	0
122	137607	3543.2	0
122	137607	3543.3	0
122	137607	3543.4	0
122	137607	3543.5	0
122	137607	3543.6	0
122	137607	3543.7	0
122	137607	3543.8	0
122	137607	3543.9	0
122	137607	3544	0
122	137607	3544.1	0
122	137607	3544.2	0
122	137607	3544.3	0
122	137607	3544.4	0
122	137607	3544.5	0
122	137607	3544.6	0
122	137607	3544.7	0
122	137607	3544.8	0
122	137607	3544.9	0
122	137607	3545	0
122	137607	3545.1	0
122	137607	3545.2	0
122	137607	3545.3	0
122	137607	3545.4	0
122	137607	3545.5	0
122	137607	3545.6	0
122	137607	3545.7	0
122	137607	3545.8	0
122	137607	3545.9	0
122	137607	3546	0
122	137607	3546.1	0
122	137607	3546.2	0
122	137607	3546.3	0
122	137607	3546.4	0
122	137607	3546.5	0
122	137607	3546.6	0
122	137607	3546.7	0
122	137607	3546.8	0
122	137607	3546.9	0
122	137607	3547	0
122	137607	3547.1	0
122	137607	3547.2	0
122	137607	3547.3	0
122	137607	3547.4	0
122	137607	3547.5	0
122	137607	3547.6	0
122	137607	3547.7	0
122	137607	3547.8	0
122	137607	3547.9	0
122	137607	3548	0
122	137607	3548.1	0
122	137607	3548.2	0
122	137607	3548.3	0
122	137607	3548.4	0
122	137607	3548.5	0
122	137607	3548.6	0
122	137607	3548.7	0
122	137607	3548.8	0
122	137607	3548.9	0
122	137607	3549	0
122	137607	3549.1	0
122	137607	3549.2	0
122	137607	3549.3	0
122	137607	3549.4	0
122	137607	3549.5	0
122	137607	3549.6	0
122	137607	3549.7	0
122	137607	3549.8	0
122	137607	3549.9	0
122	137607	3550	0
122	137607	3550.1	0
122	137607	3550.2	0
122	137607	3550.3	0
122	137607	3550.4	0
122	137607	3550.5	0
122	137607	3550.6	0
122	137607	3550.7	0
122	137607	3550.8	0
122	137607	3550.9	0
122	137607	3551	0
122	137607	3551.1	0
122	137607	3551.2	0
122	137607	3551.3	0
122	137607	3551.4	0
122	137607	3551.5	0
122	137607	3551.6	0
122	137607	3551.7	0
122	137607	3551.8	0
122	137607	3551.9	0
122	137607	3552	0
122	137607	3552.1	0
122	137607	3552.2	0
122	137607	3552.3	0
122	137607	3552.4	0
122	137607	3552.5	0
122	137607	3552.6	0
122	137607	3552.7	0
122	137607	3552.8	0
122	137607	3552.9	0
122	137607	3553	0
122	137607	3553.1	0
122	137607	3553.2	0
122	137607	3553.3	0
122	137607	3553.4	0
122	137607	3553.5	0
122	137607	3553.6	0
122	137607	3553.7	0
122	137607	3553.8	0
122	137607	3553.9	0
122	137607	3554	0
122	137607	3554.1	0
122	137607	3554.2	0
122	137607	3554.3	0
122	137607	3554.4	0
122	137607	3554.5	0
122	137607	3554.6	0
122	137607	3554.7	0
122	137607	3554.8	0
122	137607	3554.9	0
122	137607	3555	0
122	137607	3555.1	0
122	137607	3555.2	0
122	137607	3555.3	0
122	137607	3555.4	0
122	137607	3555.5	0
122	137607	3555.6	0
122	137607	3555.7	0
122	137607	3555.8	0
122	137607	3555.9	0
122	137607	3556	0
122	137607	3556.1	0
122	137607	3556.2	0
122	137607	3556.3	0
122	137607	3556.4	0
122	137607	3556.5	0
122	137607	3556.6	0
122	137607	3556.7	0
122	137607	3556.8	0
122	137607	3556.9	0
122	137607	3557	0
122	137607	3557.1	0
122	137607	3557.2	0
122	137607	3557.3	0
122	137607	3557.4	0
122	137607	3557.5	0
122	137607	3557.6	0
122	137607	3557.7	0
122	137607	3557.8	0
122	137607	3557.9	0
122	137607	3558	0
122	137607	3558.1	0
122	137607	3558.2	0
122	137607	3558.3	0
122	137607	3558.4	0
122	137607	3558.5	0
122	137607	3558.6	0
122	137607	3558.7	0
122	137607	3558.8	0
122	137607	3558.9	0
122	137607	3559	0
122	137607	3559.1	0
122	137607	3559.2	0
122	137607	3559.3	0
122	137607	3559.4	0
122	137607	3559.5	0
122	137607	3559.6	0
122	137607	3559.7	0
122	137607	3559.8	0
122	137607	3559.9	0
122	137607	3560	0
122	137607	3560.1	0
122	137607	3560.2	0
122	137607	3560.3	0
122	137607	3560.4	0
122	137607	3560.5	0
122	137607	3560.6	0
122	137607	3560.7	0
122	137607	3560.8	0
122	137607	3560.9	0
122	137607	3561	0
122	137607	3561.1	0
122	137607	3561.2	0
122	137607	3561.3	0
122	137607	3561.4	0
122	137607	3561.5	0
122	137607	3561.6	0
122	137607	3561.7	0
122	137607	3561.8	0
122	137607	3561.9	0
122	137607	3562	0
122	137607	3562.1	0
122	137607	3562.2	0
122	137607	3562.3	0
122	137607	3562.4	0
122	137607	3562.5	0
122	137607	3562.6	0
122	137607	3562.7	0
122	137607	3562.8	0
122	137607	3562.9	0
122	137607	3563	0
122	137607	3563.1	0
122	137607	3563.2	0
122	137607	3563.3	0
122	137607	3563.4	0
122	137607	3563.5	0
122	137607	3563.6	0
122	137607	3563.7	0
122	137607	3563.8	0
122	137607	3563.9	0
122	137607	3564	0
122	137607	3564.1	0
122	137607	3564.2	0
122	137607	3564.3	0
122	137607	3564.4	0
122	137607	3564.5	0
122	137607	3564.6	0
122	137607	3564.7	0
122	137607	3564.8	0
122	137607	3564.9	0
122	137607	3565	0
122	137607	3565.1	0
122	137607	3565.2	0
122	137607	3565.3	0
122	137607	3565.4	0
122	137607	3565.5	0
122	137607	3565.6	0
122	137607	3565.7	0
122	137607	3565.8	0
122	137607	3565.9	0
122	137607	3566	0
122	137607	3566.1	0
122	137607	3566.2	0
122	137607	3566.3	0
122	137607	3566.4	0
122	137607	3566.5	0
122	137607	3566.6	0
122	137607	3566.7	0
122	137607	3566.8	0
122	137607	3566.9	0
122	137607	3567	0
122	137607	3567.1	0
122	137607	3567.2	0
122	137607	3567.3	0
122	137607	3567.4	0
122	137607	3567.5	0
122	137607	3567.6	0
122	137607	3567.7	0
122	137607	3567.8	0
122	137607	3567.9	0
122	137607	3568	0
122	137607	3568.1	0
122	137607	3568.2	0
122	137607	3568.3	0
122	137607	3568.4	0
122	137607	3568.5	0
122	137607	3568.6	0
122	137607	3568.7	0
122	137607	3568.8	0
122	137607	3568.9	0
122	137607	3569	0
122	137607	3569.1	0
122	137607	3569.2	0
122	137607	3569.3	0
122	137607	3569.4	0
122	137607	3569.5	0
122	137607	3569.6	0
122	137607	3569.7	0
122	137607	3569.8	0
122	137607	3569.9	0
122	137607	3570	0
122	137607	3570.1	0
122	137607	3570.2	0
122	137607	3570.3	0
122	137607	3570.4	0
122	137607	3570.5	0
122	137607	3570.6	0
122	137607	3570.7	0
122	137607	3570.8	0
122	137607	3570.9	0
122	137607	3571	0
122	137607	3571.1	0
122	137607	3571.2	0
122	137607	3571.3	0
122	137607	3571.4	0
122	137607	3571.5	0
122	137607	3571.6	0
122	137607	3571.7	0
122	137607	3571.8	0
122	137607	3571.9	0
122	137607	3572	0
122	137607	3572.1	0
122	137607	3572.2	0
122	137607	3572.3	0
122	137607	3572.4	0
122	137607	3572.5	0
122	137607	3572.6	0
122	137607	3572.7	0
122	137607	3572.8	0
122	137607	3572.9	0
122	137607	3573	0
122	137607	3573.1	0
122	137607	3573.2	0
122	137607	3573.3	0
122	137607	3573.4	0
122	137607	3573.5	0
122	137607	3573.6	0
122	137607	3573.7	0
122	137607	3573.8	0
122	137607	3573.9	0
122	137607	3574	0
122	137607	3574.1	0
122	137607	3574.2	0
122	137607	3574.3	0
122	137607	3574.4	0
122	137607	3574.5	0
122	137607	3574.6	0
122	137607	3574.7	0
122	137607	3574.8	0
122	137607	3574.9	0
122	137607	3575	0
122	137607	3575.1	0
122	137607	3575.2	0
122	137607	3575.3	0
122	137607	3575.4	0
122	137607	3575.5	0
122	137607	3575.6	0
122	137607	3575.7	0
122	137607	3575.8	0
122	137607	3575.9	0
122	137607	3576	0
122	137607	3576.1	0
122	137607	3576.2	0
122	137607	3576.3	0
122	137607	3576.4	0
122	137607	3576.5	0
122	137607	3576.6	0
122	137607	3576.7	0
122	137607	3576.8	0
122	137607	3576.9	0
122	137607	3577	0
122	137607	3577.1	0
122	137607	3577.2	0
122	137607	3577.3	0
122	137607	3577.4	0
122	137607	3577.5	0
122	137607	3577.6	0
122	137607	3577.7	0
122	137607	3577.8	0
122	137607	3577.9	0
122	137607	3578	0
122	137607	3578.1	0
122	137607	3578.2	0
122	137607	3578.3	0
122	137607	3578.4	0
122	137607	3578.5	0
122	137607	3578.6	0
122	137607	3578.7	0
122	137607	3578.8	0
122	137607	3578.9	0
122	137607	3579	0
122	137607	3579.1	0
122	137607	3579.2	0
122	137607	3579.3	0
122	137607	3579.4	0
122	137607	3579.5	0
122	137607	3579.6	0
122	137607	3579.7	0
122	137607	3579.8	0
122	137607	3579.9	0
122	137607	3580	0
122	137607	3580.1	0
122	137607	3580.2	0
122	137607	3580.3	0
122	137607	3580.4	0
122	137607	3580.5	0
122	137607	3580.6	0
122	137607	3580.7	0
122	137607	3580.8	0
122	137607	3580.9	0
122	137607	3581	0
122	137607	3581.1	0
122	137607	3581.2	0
122	137607	3581.3	0
122	137607	3581.4	0
122	137607	3581.5	0
122	137607	3581.6	0
122	137607	3581.7	0
122	137607	3581.8	0
122	137607	3581.9	0
122	137607	3582	0
122	137607	3582.1	0
122	137607	3582.2	0
122	137607	3582.3	0
122	137607	3582.4	0
122	137607	3582.5	0
122	137607	3582.6	0
122	137607	3582.7	0
122	137607	3582.8	0
122	137607	3582.9	0
122	137607	3583	0
122	137607	3583.1	0
122	137607	3583.2	0
122	137607	3583.3	0
122	137607	3583.4	0
122	137607	3583.5	0
122	137607	3583.6	0
122	137607	3583.7	0
122	137607	3583.8	0
122	137607	3583.9	0
122	137607	3584	0
122	137607	3584.1	0
122	137607	3584.2	0
122	137607	3584.3	0
122	137607	3584.4	0
122	137607	3584.5	0
122	137607	3584.6	0
122	137607	3584.7	0
122	137607	3584.8	0
122	137607	3584.9	0
122	137607	3585	0
122	137607	3585.1	0
122	137607	3585.2	0
122	137607	3585.3	0
122	137607	3585.4	0
122	137607	3585.5	0
122	137607	3585.6	0
122	137607	3585.7	0
122	137607	3585.8	0
122	137607	3585.9	0
122	137607	3586	0
122	137607	3586.1	0
122	137607	3586.2	0
122	137607	3586.3	0
122	137607	3586.4	0
122	137607	3586.5	0
122	137607	3586.6	0
122	137607	3586.7	0
122	137607	3586.8	0
122	137607	3586.9	0
122	137607	3587	0
122	137607	3587.1	0
122	137607	3587.2	0
122	137607	3587.3	0
122	137607	3587.4	0
122	137607	3587.5	0
122	137607	3587.6	0
122	137607	3587.7	0
122	137607	3587.8	0
122	137607	3587.9	0
122	137607	3588	0
122	137607	3588.1	0
122	137607	3588.2	0
122	137607	3588.3	0
122	137607	3588.4	0
122	137607	3588.5	0
122	137607	3588.6	0
122	137607	3588.7	0
122	137607	3588.8	0
122	137607	3588.9	0
122	137607	3589	0
122	137607	3589.1	0
122	137607	3589.2	0
122	137607	3589.3	0
122	137607	3589.4	0
122	137607	3589.5	0
122	137607	3589.6	0
122	137607	3589.7	0
122	137607	3589.8	0
122	137607	3589.9	0
122	137607	3590	0
122	137607	3590.1	0
122	137607	3590.2	0
122	137607	3590.3	0
122	137607	3590.4	0
122	137607	3590.5	0
122	137607	3590.6	0
122	137607	3590.7	0
122	137607	3590.8	0
122	137607	3590.9	0
122	137607	3591	0
122	137607	3591.1	0
122	137607	3591.2	0
122	137607	3591.3	0
122	137607	3591.4	0
122	137607	3591.5	0
122	137607	3591.6	0
122	137607	3591.7	0
122	137607	3591.8	0
122	137607	3591.9	0
122	137607	3592	0
122	137607	3592.1	0
122	137607	3592.2	0
122	137607	3592.3	0
122	137607	3592.4	0
122	137607	3592.5	0
122	137607	3592.6	0
122	137607	3592.7	0
122	137607	3592.8	0
122	137607	3592.9	0
122	137607	3593	0
122	137607	3593.1	0
122	137607	3593.2	0
122	137607	3593.3	0
122	137607	3593.4	0
122	137607	3593.5	0
122	137607	3593.6	0
122	137607	3593.7	0
122	137607	3593.8	0
122	137607	3593.9	0
122	137607	3594	0
122	137607	3594.1	0
122	137607	3594.2	0
122	137607	3594.3	0
122	137607	3594.4	0
122	137607	3594.5	0
122	137607	3594.6	0
122	137607	3594.7	0
122	137607	3594.8	0
122	137607	3594.9	0
122	137607	3595	0
122	137607	3595.1	0
122	137607	3595.2	0
122	137607	3595.3	0
122	137607	3595.4	0
122	137607	3595.5	0
122	137607	3595.6	0
122	137607	3595.7	0
122	137607	3595.8	0
122	137607	3595.9	0
122	137607	3596	0
122	137607	3596.1	0
122	137607	3596.2	0
122	137607	3596.3	0
122	137607	3596.4	0
122	137607	3596.5	0
122	137607	3596.6	0
122	137607	3596.7	0
122	137607	3596.8	0
122	137607	3596.9	0
122	137607	3597	0
122	137607	3597.1	0
122	137607	3597.2	0
122	137607	3597.3	0
122	137607	3597.4	0
122	137607	3597.5	0
122	137607	3597.6	0
122	137607	3597.7	0
122	137607	3597.8	0
122	137607	3597.9	0
122	137607	3598	0
122	137607	3598.1	0
122	137607	3598.2	0
122	137607	3598.3	0
122	137607	3598.4	0
122	137607	3598.5	0
122	137607	3598.6	0
122	137607	3598.7	0
122	137607	3598.8	0
122	137607	3598.9	0
122	137607	3599	0
122	137607	3599.1	0
122	137607	3599.2	0
122	137607	3599.3	0
122	137607	3599.4	0
122	137607	3599.5	0
122	137607	3599.6	0
122	137607	3599.7	0
122	137607	3599.8	0
122	137607	3599.9	0
122	137607	3600	0

