version 2
run General-13-20221205-14:06:54-37673
attr configname General
attr datetime 20221205-14:06:54
attr experiment General
attr inifile omnetpp.ini
attr iterationvars "$numClientINI=30, $TrainingDeadline=16s, $modelSize=50000B"
attr iterationvarsf numClientINI=30,TrainingDeadline=16s,modelSize=50000B-
attr measurement "$numClientINI=30, $TrainingDeadline=16s, $modelSize=50000B"
attr network SingleCell
attr processid 37673
attr repetition 13
attr replication #13
attr resultdir results
attr runnumber 13
attr seedset 13
itervar TrainingDeadline 16s
itervar modelSize 50000B
itervar numClientINI 30
param **.routingRecorder.enabled false
param *.configurator.config "xmldoc(\"demo.xml\")"
param **.round 13
param **.mobility.constraintAreaMinZ 0m
param **.mobility.constraintAreaMaxZ 0m
param *.s.mobility.initFromDisplayString false
param **.numRbDl 200
param **.numRbUl 200
param **.binder.numBands 200
param *.visualizerMap.sceneVisualizer.typename "\"OpenStreetMapSceneCanvasVisualizer\""
param *.visualizerMap.sceneVisualizer.mapFile "xmldoc(\"haneda.osm\")"
param *.coordinateSystem.sceneLatitude 35.5667000deg
param *.coordinateSystem.sceneLongitude 139.7621000deg
param **.lteNic.phy.enableHandover true
param *.eNB*.numX2Apps 2
param *.eNB0.x2App[0].server.localPort 2000
param *.eNB1.x2App[0].server.localPort 2001
param *.eNB2.x2App[0].server.localPort 2002
param *.eNB3.x2App[0].server.localPort 2003
param *.eNB0.x2App[1].server.localPort 2004
param *.eNB1.x2App[1].server.localPort 2005
param *.eNB2.x2App[1].server.localPort 2006
param *.eNB3.x2App[1].server.localPort 2007
param *.eNB0.x2App[0].client.connectAddress "\"eNB1%x2ppp0\""
param *.eNB0.x2App[1].client.connectAddress "\"eNB3%x2ppp0\""
param *.eNB1.x2App[0].client.connectAddress "\"eNB0%x2ppp0\""
param *.eNB1.x2App[1].client.connectAddress "\"eNB2%x2ppp0\""
param *.eNB2.x2App[0].client.connectAddress "\"eNB1%x2ppp0\""
param *.eNB2.x2App[1].client.connectAddress "\"eNB3%x2ppp0\""
param *.eNB3.x2App[0].client.connectAddress "\"eNB0%x2ppp0\""
param *.eNB3.x2App[1].client.connectAddress "\"eNB2%x2ppp0\""
param **.ueTxPower 26
param **.eNodeBTxPower 40
param **.C[*].macCellId 1
param **.C[*].masterId 1
param **.s.macCellId 1
param **.s.masterId 1
param *.s.mobilityType "\"StationaryMobility\""
param *.s.**.initialX 1280m
param *.s.**.initialY 2800m
param *.s.**.initialZ 0m
param *.C[*].mobilityType "\"SUMOMobility\""
param *.C[*].mobility.constraintAreaMinX 0m
param *.C[*].mobility.constraintAreaMinY 0m
param *.C[*].mobility.constraintAreaMaxX 4939.44m
param *.C[*].mobility.constraintAreaMaxY 6386.11m
param *.configurator.dumpAddresses true
param *.configurator.dumpTopology true
param *.configurator.dumpLinks true
param *.configurator.dumpRoutes true
param **.ipv4.arp.typename "\"GlobalArp\""
param *.*.ipv4.routingTable.netmaskRoutes "\"\""
param **.numClient 30
param **.TrainingDeadline 16s
param *.C[*].numApps 4
param *.C[*].app[0].typename "\"ClientSink\""
param *.C[*].app[0].localPort 3000
param *.C[*].app[1].typename "\"exchangeInfo_broadcast\""
param *.C[*].app[1].destAddresses "\"224.0.0.9\""
param *.C[*].app[1].destPort 6000
param *.C[*].app[1].messageLength 30B
param *.C[*].app[1].sendInterval 0.1s
param *.C[*].app[1].startTime uniform(1s,1.2s)
param *.C[*].app[1].joinLocalMulticastGroups true
param **.checkInterval 3
param *.C[*].app[2].typename "\"exchangeInfo_sink\""
param *.C[*].app[2].localPort 6000
param *.C[*].app[2].multicastGroup "\"224.0.0.9\""
param *.C[*].app[3].typename "\"upload_ClientSession\""
param *.C[*].app[3].connectAddress "\"192.168.0.2\""
param *.C[*].app[3].connectPort 9000
param *.C[*].app[3].sendBytes 50000B
param *.C[*].app[3].localPort 8000
param *.C[*].app[3].tOpen 16s
param *.C[*].app[3].tSend 16s
param *.C[*].app[3].tClose -1s
param *.C[*].app[3].SelectClientNumPerCoverage 2
param **.selectionRange 1600m
param **.modelSize 50000B
param *.s.numApps "30 + 1"
param **.alpha0 0
param **.alpha1 0
param **.alpha2 1
param **.alpha3 1
param *.s.app[0..29].typename "\"Broadcast\""
param *.s.app[0..29].connectAddress "\"192.168.0.\" + string(3 + ancestorIndex(0))"
param *.s.app[0..29].connectPort 3000
param *.s.app[0..29].sendBytes 50000B
param *.s.app[0..29].localPort "4000 + ancestorIndex(0)"
param *.s.app[0..29].tOpen 1.01s
param *.s.app[0..29].tSend 1.015s
param *.s.app[0..29].tClose -1s
param *.s.app[30].typename "\"upload_ServerSink\""
param *.s.app[30].localPort 9000
param **.wlan[0].opMode "\"p\""
param **.wlan[0].radio.typename "\"Ieee80211DimensionalRadio\""
param **.wlan[0].radio.bandName "\"5.9 GHz\""
param **.wlan[0].radio.channelNumber 3
param **.wlan[0].radio.transmitter.power 100mW
param **.wlan[0].radio.bandwidth "10 MHz"
param **.wlan[*].radio.antenna.mobility.typename "\"AttachedMobility\""
param **.wlan[*].radio.antenna.mobility.mobilityModule "\"^.^.^.^.mobility\""
param **.wlan[*].radio.antenna.mobility.offsetX -2.5m
param **.wlan[*].radio.antenna.mobility.offsetZ 1.5m
param **.wlan[*].radio.antenna.mobility.constraintAreaMinX 0m
param **.wlan[*].radio.antenna.mobility.constraintAreaMaxX 0m
param **.wlan[*].radio.antenna.mobility.constraintAreaMinY 0m
param **.wlan[*].radio.antenna.mobility.constraintAreaMaxY 0m
param **.channelModel.dynamic_los true
param *.C[*].app[0].computationCapability uniform(1,20)
param *.C[0].app[1].sampleQuantity 4500
param *.C[1].app[1].sampleQuantity 4500
param *.C[2].app[1].sampleQuantity 4500
param *.C[3].app[1].sampleQuantity 4500
param *.C[4].app[1].sampleQuantity 4500
param *.C[5].app[1].sampleQuantity 4500
param *.C[6].app[1].sampleQuantity 4500
param *.C[7].app[1].sampleQuantity 4500
param *.C[8].app[1].sampleQuantity 4500
param *.C[9].app[1].sampleQuantity 4500
param *.C[10].app[1].sampleQuantity 4500
param *.C[11].app[1].sampleQuantity 4500
param *.C[12].app[1].sampleQuantity 45
param *.C[13].app[1].sampleQuantity 45
param *.C[14].app[1].sampleQuantity 45
param *.C[15].app[1].sampleQuantity 45
param *.C[16].app[1].sampleQuantity 45
param *.C[17].app[1].sampleQuantity 45
param *.C[18].app[1].sampleQuantity 45
param *.C[19].app[1].sampleQuantity 45
param *.C[20].app[1].sampleQuantity 45
param *.C[21].app[1].sampleQuantity 45
param *.C[22].app[1].sampleQuantity 45
param *.C[23].app[1].sampleQuantity 45
param *.C[24].app[1].sampleQuantity 45
param *.C[25].app[1].sampleQuantity 45
param *.C[26].app[1].sampleQuantity 45
param *.C[27].app[1].sampleQuantity 45
param *.C[28].app[1].sampleQuantity 45
param *.C[29].app[1].sampleQuantity 45

scalar SingleCell.eNB0.x2App[0].client ums 1452
scalar SingleCell.eNB0.x2App[1].client ums 1452
scalar SingleCell.eNB1.x2App[0].client ums 1452
scalar SingleCell.eNB1.x2App[1].client ums 1452
scalar SingleCell.eNB2.x2App[0].client ums 1452
scalar SingleCell.eNB2.x2App[1].client ums 1452
scalar SingleCell.eNB3.x2App[0].client ums 1452
scalar SingleCell.eNB3.x2App[1].client ums 1452
scalar SingleCell.radioMedium.propagation "Arrival computation count" 260670
scalar SingleCell.radioMedium "transmission count" 8689
scalar SingleCell.radioMedium "signal send count" 260670
scalar SingleCell.radioMedium "reception computation count" 260670
scalar SingleCell.radioMedium "interference computation count" 790730
scalar SingleCell.radioMedium "reception decision computation count" 72347
scalar SingleCell.radioMedium "listening decision computation count" 457713
scalar SingleCell.radioMedium "reception cache hit" 79.307322811956
attr unit %
scalar SingleCell.radioMedium "interference cache hit" 66.666666666667
attr unit %
scalar SingleCell.radioMedium "noise cache hit" 0
attr unit %
scalar SingleCell.radioMedium "snir cache hit" 50
attr unit %
scalar SingleCell.radioMedium "reception decision cache hit" 50
attr unit %
scalar SingleCell.radioMedium "reception result cache hit" 0
attr unit %
scalar SingleCell.server.lo[0].lo rcvdPkFromHl:count 0
attr interpolationmode none
attr source packetReceivedFromUpper
attr title "packets received from higher layer, count"
scalar SingleCell.server.lo[0].lo rcvdPkFromHl:sum(packetBytes) 0
attr interpolationmode none
attr source packetReceivedFromUpper
attr title "packets received from higher layer, sum(packetBytes)"
scalar SingleCell.server.lo[0].lo passedUpPk:count 0
attr interpolationmode none
attr source packetSentToUpper
attr title "packets passed to higher layer, count"
scalar SingleCell.server.lo[0].lo passedUpPk:sum(packetBytes) 0
attr interpolationmode none
attr source packetSentToUpper
attr title "packets passed to higher layer, sum(packetBytes)"
scalar SingleCell.server.ppp[0].ppp.queue packetPopped:count 0
attr interpolationmode none
attr title "packet popped, count"
scalar SingleCell.server.ppp[0].ppp.queue packetPopped:sum(packetBytes) 0
attr interpolationmode none
attr title "packet popped, sum(packetBytes)"
statistic SingleCell.server.ppp[0].ppp.queue queueingTime:histogram
field count 0
field mean -nan
field stddev nan
field min nan
field max nan
field sum 0
field sqrsum 0
attr interpolationmode none
attr source queueingTime(packetPopped)
attr title "queueing times, histogram"
attr unit s
bin	-inf	0
bin	0	0
bin	1	0
scalar SingleCell.server.ppp[0].ppp.queue queueLength:max nan
attr interpolationmode sample-hold
attr source "count(packetPushed) - count(packetPopped) - count(packetRemoved) - count(packetDropped)"
attr title "queue length, max"
scalar SingleCell.server.ppp[0].ppp.queue queueLength:timeavg -nan
attr interpolationmode sample-hold
attr source "count(packetPushed) - count(packetPopped) - count(packetRemoved) - count(packetDropped)"
attr title "queue length, timeavg"
scalar SingleCell.server.ppp[0].ppp.queue packetPushed:count 0
attr interpolationmode none
attr title "packet pushed, count"
scalar SingleCell.server.ppp[0].ppp.queue packetPushed:sum(packetBytes) 0
attr interpolationmode none
attr title "packet pushed, sum(packetBytes)"
scalar SingleCell.server.ppp[0].ppp.queue packetDropQueueOverflow:count 0
attr interpolationmode none
attr source packetDropReasonIsQueueOverflow(packetDropped)
attr title "packet drops: queue overflow, count"
scalar SingleCell.server.ppp[0].ppp.queue packetDropQueueOverflow:sum(packetBytes) 0
attr interpolationmode none
attr source packetDropReasonIsQueueOverflow(packetDropped)
attr title "packet drops: queue overflow, sum(packetBytes)"
scalar SingleCell.server.ppp[0].ppp.queue packetRemoved:count 0
attr interpolationmode none
attr title "packets removed, count"
scalar SingleCell.server.ppp[0].ppp.queue packetRemoved:sum(packetBytes) 0
attr interpolationmode none
attr title "packets removed, sum(packetBytes)"
scalar SingleCell.server.ppp[0].ppp transmissionState:timeavg 0
attr interpolationmode sample-hold
attr source transmissionStateChanged
attr title "tx state, timeavg"
scalar SingleCell.server.ppp[0].ppp rxPkOk:count 0
attr interpolationmode none
attr source rxPkOk
attr title "packets received OK, count"
scalar SingleCell.server.ppp[0].ppp rxPkOk:sum(packetBytes) 0
attr interpolationmode none
attr source rxPkOk
attr title "packets received OK, sum(packetBytes)"
scalar SingleCell.server.ppp[0].ppp txPk:count 0
attr interpolationmode none
attr source packetSentToLower
attr title "packets transmitted, count"
scalar SingleCell.server.ppp[0].ppp txPk:sum(packetBytes) 0
attr interpolationmode none
attr source packetSentToLower
attr title "packets transmitted, sum(packetBytes)"
scalar SingleCell.server.ppp[0].ppp rcvdPkFromHl:count 0
attr interpolationmode none
attr source packetReceivedFromUpper
attr title "packets received from higher layer, count"
scalar SingleCell.server.ppp[0].ppp rcvdPkFromHl:sum(packetBytes) 0
attr interpolationmode none
attr source packetReceivedFromUpper
attr title "packets received from higher layer, sum(packetBytes)"
scalar SingleCell.server.ppp[0].ppp passedUpPk:count 0
attr interpolationmode none
attr source packetSentToUpper
attr title "packets passed to higher layer, count"
scalar SingleCell.server.ppp[0].ppp passedUpPk:sum(packetBytes) 0
attr interpolationmode none
attr source packetSentToUpper
attr title "packets passed to higher layer, sum(packetBytes)"
scalar SingleCell.server.ppp[0].ppp packetDropIncorrectlyReceived:count 0
attr interpolationmode none
attr source packetDropReasonIsIncorrectlyReceived(packetDropped)
attr title "packet drop: incorrectly received, count"
scalar SingleCell.server.ppp[0].ppp packetDropIncorrectlyReceived:sum(packetBytes) 0
attr interpolationmode none
attr source packetDropReasonIsIncorrectlyReceived(packetDropped)
attr title "packet drop: incorrectly received, sum(packetBytes)"
scalar SingleCell.server.ppp[0].ppp packetDropInterfaceDown:count 0
attr interpolationmode none
attr source packetDropReasonIsInterfaceDown(packetDropped)
attr title "packet drop: interface down, count"
scalar SingleCell.server.ppp[0].ppp packetDropInterfaceDown:sum(packetBytes) 0
attr interpolationmode none
attr source packetDropReasonIsInterfaceDown(packetDropped)
attr title "packet drop: interface down, sum(packetBytes)"
scalar SingleCell.server.ipv4.ip packetDropAddressResolutionFailed:count 0
attr interpolationmode none
attr source packetDropReasonIsAddressResolutionFailed(packetDropped)
attr title "packet drop: address resolution failed, count"
scalar SingleCell.server.ipv4.ip packetDropAddressResolutionFailed:sum(packetBytes) 0
attr interpolationmode none
attr source packetDropReasonIsAddressResolutionFailed(packetDropped)
attr title "packet drop: address resolution failed, sum(packetBytes)"
scalar SingleCell.server.ipv4.ip packetDropHopLimitReached:count 0
attr interpolationmode none
attr source packetDropReasonIsHopLimitReached(packetDropped)
attr title "packet drop: hop limit reached, count"
scalar SingleCell.server.ipv4.ip packetDropHopLimitReached:sum(packetBytes) 0
attr interpolationmode none
attr source packetDropReasonIsHopLimitReached(packetDropped)
attr title "packet drop: hop limit reached, sum(packetBytes)"
scalar SingleCell.server.ipv4.ip packetDropForwardingDisabled:count 0
attr interpolationmode none
attr source packetDropReasonIsForwardingDisabled(packetDropped)
attr title "packet drop: forwarding disabled, count"
scalar SingleCell.server.ipv4.ip packetDropForwardingDisabled:sum(packetBytes) 0
attr interpolationmode none
attr source packetDropReasonIsForwardingDisabled(packetDropped)
attr title "packet drop: forwarding disabled, sum(packetBytes)"
scalar SingleCell.server.ipv4.ip packetDropNoInterfaceFound:count 0
attr interpolationmode none
attr source packetDropReasonIsNoInterfaceFound(packetDropped)
attr title "packet drop: no interface found, count"
scalar SingleCell.server.ipv4.ip packetDropNoInterfaceFound:sum(packetBytes) 0
attr interpolationmode none
attr source packetDropReasonIsNoInterfaceFound(packetDropped)
attr title "packet drop: no interface found, sum(packetBytes)"
scalar SingleCell.server.ipv4.ip packetDropNoRouteFound:count 0
attr interpolationmode none
attr source packetDropReasonIsNoRouteFound(packetDropped)
attr title "packet drop: no route found, count"
scalar SingleCell.server.ipv4.ip packetDropNoRouteFound:sum(packetBytes) 0
attr interpolationmode none
attr source packetDropReasonIsNoRouteFound(packetDropped)
attr title "packet drop: no route found, sum(packetBytes)"
scalar SingleCell.server.ipv4.ip packetDropUndefined:count 0
attr interpolationmode none
attr source packetDropReasonIsUndefined(packetDropped)
attr title "packet drop: undefined, count"
scalar SingleCell.server.ipv4.ip packetDropUndefined:sum(packetBytes) 0
attr interpolationmode none
attr source packetDropReasonIsUndefined(packetDropped)
attr title "packet drop: undefined, sum(packetBytes)"
scalar SingleCell.server.udp packetReceived:count 0
attr interpolationmode none
attr source packetReceived
attr title "packets received, count"
scalar SingleCell.server.udp packetReceived:sum(packetBytes) 0
attr interpolationmode none
attr source packetReceived
attr title "packets received, sum(packetBytes)"
scalar SingleCell.server.udp packetSent:count 0
attr interpolationmode none
attr source packetSent
attr title "packets sent, count"
scalar SingleCell.server.udp packetSent:sum(packetBytes) 0
attr interpolationmode none
attr source packetSent
attr title "packets sent, sum(packetBytes)"
scalar SingleCell.server.udp passedUpPk:count 0
attr interpolationmode none
attr source packetSentToUpper
attr title "packets passed up, count"
scalar SingleCell.server.udp droppedPkWrongPort:count 0
attr interpolationmode none
attr source packetDropReasonIsNoPortFound(packetDropped)
attr title "packets dropped (wrong port), count"
scalar SingleCell.server.udp droppedPkBadChecksum:count 0
attr interpolationmode none
attr source packetDropReasonIsIncorrectlyReceived(packetDropped)
attr title "packets dropped (checksum error), count"
scalar SingleCell.router0.lo[0].lo rcvdPkFromHl:count 0
attr interpolationmode none
attr source packetReceivedFromUpper
attr title "packets received from higher layer, count"
scalar SingleCell.router0.lo[0].lo rcvdPkFromHl:sum(packetBytes) 0
attr interpolationmode none
attr source packetReceivedFromUpper
attr title "packets received from higher layer, sum(packetBytes)"
scalar SingleCell.router0.lo[0].lo passedUpPk:count 0
attr interpolationmode none
attr source packetSentToUpper
attr title "packets passed to higher layer, count"
scalar SingleCell.router0.lo[0].lo passedUpPk:sum(packetBytes) 0
attr interpolationmode none
attr source packetSentToUpper
attr title "packets passed to higher layer, sum(packetBytes)"
scalar SingleCell.router0.ppp[0].ppp.queue packetPopped:count 1824
attr interpolationmode none
attr title "packet popped, count"
scalar SingleCell.router0.ppp[0].ppp.queue packetPopped:sum(packetBytes) 906300
attr interpolationmode none
attr title "packet popped, sum(packetBytes)"
statistic SingleCell.router0.ppp[0].ppp.queue queueingTime:histogram
field count 1824
field mean 7.1263157894737e-09
field stddev 5.2347322372213e-08
field min 0
field max 4.288e-07
field sum 1.29984e-05
field sqrsum 5.08809216e-12
attr interpolationmode none
attr source queueingTime(packetPopped)
attr title "queueing times, histogram"
attr unit s
bin	-inf	0
bin	0	1790
bin	1e-08	0
bin	2e-08	0
bin	3e-08	0
bin	4e-08	0
bin	5e-08	0
bin	6e-08	0
bin	7e-08	0
bin	8e-08	0
bin	9e-08	0
bin	1e-07	0
bin	1.1e-07	0
bin	1.2e-07	0
bin	1.3e-07	0
bin	1.4e-07	0
bin	1.5e-07	0
bin	1.6e-07	0
bin	1.7e-07	0
bin	1.8e-07	0
bin	1.9e-07	0
bin	2e-07	0
bin	2.1e-07	0
bin	2.2e-07	0
bin	2.3e-07	0
bin	2.4e-07	0
bin	2.5e-07	0
bin	2.6e-07	0
bin	2.7e-07	0
bin	2.8e-07	0
bin	2.9e-07	0
bin	3e-07	13
bin	3.1e-07	0
bin	3.2e-07	0
bin	3.3e-07	0
bin	3.4e-07	0
bin	3.5e-07	0
bin	3.6e-07	0
bin	3.7e-07	0
bin	3.8e-07	0
bin	3.9e-07	0
bin	4e-07	0
bin	4.1e-07	0
bin	4.2e-07	21
bin	4.3e-07	0
bin	4.4e-07	0
bin	4.5e-07	0
bin	4.6e-07	0
bin	4.7e-07	0
bin	4.8e-07	0
bin	4.9e-07	0
bin	5e-07	0
bin	5.1e-07	0
bin	5.2e-07	0
bin	5.3e-07	0
bin	5.4e-07	0
scalar SingleCell.router0.ppp[0].ppp.queue queueLength:max 3
attr interpolationmode sample-hold
attr source "count(packetPushed) - count(packetPopped) - count(packetRemoved) - count(packetDropped)"
attr title "queue length, max"
scalar SingleCell.router0.ppp[0].ppp.queue queueLength:timeavg 4.4849907015144e-07
attr interpolationmode sample-hold
attr source "count(packetPushed) - count(packetPopped) - count(packetRemoved) - count(packetDropped)"
attr title "queue length, timeavg"
scalar SingleCell.router0.ppp[0].ppp.queue packetPushed:count 1824
attr interpolationmode none
attr title "packet pushed, count"
scalar SingleCell.router0.ppp[0].ppp.queue packetPushed:sum(packetBytes) 906300
attr interpolationmode none
attr title "packet pushed, sum(packetBytes)"
scalar SingleCell.router0.ppp[0].ppp.queue packetDropQueueOverflow:count 0
attr interpolationmode none
attr source packetDropReasonIsQueueOverflow(packetDropped)
attr title "packet drops: queue overflow, count"
scalar SingleCell.router0.ppp[0].ppp.queue packetDropQueueOverflow:sum(packetBytes) 0
attr interpolationmode none
attr source packetDropReasonIsQueueOverflow(packetDropped)
attr title "packet drops: queue overflow, sum(packetBytes)"
scalar SingleCell.router0.ppp[0].ppp.queue packetRemoved:count 0
attr interpolationmode none
attr title "packets removed, count"
scalar SingleCell.router0.ppp[0].ppp.queue packetRemoved:sum(packetBytes) 0
attr interpolationmode none
attr title "packets removed, sum(packetBytes)"
scalar SingleCell.router0.ppp[0].ppp transmissionState:timeavg 2.450848e-05
attr interpolationmode sample-hold
attr source transmissionStateChanged
attr title "tx state, timeavg"
scalar SingleCell.router0.ppp[0].ppp rxPkOk:count 1768
attr interpolationmode none
attr source rxPkOk
attr title "packets received OK, count"
scalar SingleCell.router0.ppp[0].ppp rxPkOk:sum(packetBytes) 284484
attr interpolationmode none
attr source rxPkOk
attr title "packets received OK, sum(packetBytes)"
scalar SingleCell.router0.ppp[0].ppp txPk:count 1824
attr interpolationmode none
attr source packetSentToLower
attr title "packets transmitted, count"
scalar SingleCell.router0.ppp[0].ppp txPk:sum(packetBytes) 919068
attr interpolationmode none
attr source packetSentToLower
attr title "packets transmitted, sum(packetBytes)"
scalar SingleCell.router0.ppp[0].ppp rcvdPkFromHl:count 1824
attr interpolationmode none
attr source packetReceivedFromUpper
attr title "packets received from higher layer, count"
scalar SingleCell.router0.ppp[0].ppp rcvdPkFromHl:sum(packetBytes) 906300
attr interpolationmode none
attr source packetReceivedFromUpper
attr title "packets received from higher layer, sum(packetBytes)"
scalar SingleCell.router0.ppp[0].ppp passedUpPk:count 1768
attr interpolationmode none
attr source packetSentToUpper
attr title "packets passed to higher layer, count"
scalar SingleCell.router0.ppp[0].ppp passedUpPk:sum(packetBytes) 272108
attr interpolationmode none
attr source packetSentToUpper
attr title "packets passed to higher layer, sum(packetBytes)"
scalar SingleCell.router0.ppp[0].ppp packetDropIncorrectlyReceived:count 0
attr interpolationmode none
attr source packetDropReasonIsIncorrectlyReceived(packetDropped)
attr title "packet drop: incorrectly received, count"
scalar SingleCell.router0.ppp[0].ppp packetDropIncorrectlyReceived:sum(packetBytes) 0
attr interpolationmode none
attr source packetDropReasonIsIncorrectlyReceived(packetDropped)
attr title "packet drop: incorrectly received, sum(packetBytes)"
scalar SingleCell.router0.ppp[0].ppp packetDropInterfaceDown:count 0
attr interpolationmode none
attr source packetDropReasonIsInterfaceDown(packetDropped)
attr title "packet drop: interface down, count"
scalar SingleCell.router0.ppp[0].ppp packetDropInterfaceDown:sum(packetBytes) 0
attr interpolationmode none
attr source packetDropReasonIsInterfaceDown(packetDropped)
attr title "packet drop: interface down, sum(packetBytes)"
scalar SingleCell.router0.ppp[1].ppp.queue packetPopped:count 1768
attr interpolationmode none
attr title "packet popped, count"
scalar SingleCell.router0.ppp[1].ppp.queue packetPopped:sum(packetBytes) 272108
attr interpolationmode none
attr title "packet popped, sum(packetBytes)"
statistic SingleCell.router0.ppp[1].ppp.queue queueingTime:histogram
field count 1768
field mean 5.2850678733032e-10
field stddev 1.2647827483173e-08
field min 0
field max 3.072e-07
field sum 9.344e-07
field sqrsum 2.8315648e-13
attr interpolationmode none
attr source queueingTime(packetPopped)
attr title "queueing times, histogram"
attr unit s
bin	-inf	0
bin	-0.5	0
bin	-0.48	0
bin	-0.46	0
bin	-0.44	0
bin	-0.42	0
bin	-0.4	0
bin	-0.38	0
bin	-0.36	0
bin	-0.34	0
bin	-0.32	0
bin	-0.3	0
bin	-0.28	0
bin	-0.26	0
bin	-0.24	0
bin	-0.22	0
bin	-0.2	0
bin	-0.18	0
bin	-0.16	0
bin	-0.14	0
bin	-0.12	0
bin	-0.1	0
bin	-0.08	0
bin	-0.06	0
bin	-0.04	0
bin	-0.02	0
bin	0	1768
bin	0.02	0
bin	0.04	0
bin	0.06	0
bin	0.08	0
bin	0.1	0
bin	0.12	0
bin	0.14	0
bin	0.16	0
bin	0.18	0
bin	0.2	0
bin	0.22	0
bin	0.24	0
bin	0.26	0
bin	0.28	0
bin	0.3	0
bin	0.32	0
bin	0.34	0
bin	0.36	0
bin	0.38	0
bin	0.4	0
bin	0.42	0
bin	0.44	0
bin	0.46	0
bin	0.48	0
bin	0.5	0
scalar SingleCell.router0.ppp[1].ppp.queue queueLength:max 1
attr interpolationmode sample-hold
attr source "count(packetPushed) - count(packetPopped) - count(packetRemoved) - count(packetDropped)"
attr title "queue length, max"
scalar SingleCell.router0.ppp[1].ppp.queue queueLength:timeavg 3.2262965645809e-08
attr interpolationmode sample-hold
attr source "count(packetPushed) - count(packetPopped) - count(packetRemoved) - count(packetDropped)"
attr title "queue length, timeavg"
scalar SingleCell.router0.ppp[1].ppp.queue packetPushed:count 1768
attr interpolationmode none
attr title "packet pushed, count"
scalar SingleCell.router0.ppp[1].ppp.queue packetPushed:sum(packetBytes) 272108
attr interpolationmode none
attr title "packet pushed, sum(packetBytes)"
scalar SingleCell.router0.ppp[1].ppp.queue packetDropQueueOverflow:count 0
attr interpolationmode none
attr source packetDropReasonIsQueueOverflow(packetDropped)
attr title "packet drops: queue overflow, count"
scalar SingleCell.router0.ppp[1].ppp.queue packetDropQueueOverflow:sum(packetBytes) 0
attr interpolationmode none
attr source packetDropReasonIsQueueOverflow(packetDropped)
attr title "packet drops: queue overflow, sum(packetBytes)"
scalar SingleCell.router0.ppp[1].ppp.queue packetRemoved:count 0
attr interpolationmode none
attr title "packets removed, count"
scalar SingleCell.router0.ppp[1].ppp.queue packetRemoved:sum(packetBytes) 0
attr interpolationmode none
attr title "packets removed, sum(packetBytes)"
scalar SingleCell.router0.ppp[1].ppp transmissionState:timeavg 7.5862399999999e-06
attr interpolationmode sample-hold
attr source transmissionStateChanged
attr title "tx state, timeavg"
scalar SingleCell.router0.ppp[1].ppp rxPkOk:count 1824
attr interpolationmode none
attr source rxPkOk
attr title "packets received OK, count"
scalar SingleCell.router0.ppp[1].ppp rxPkOk:sum(packetBytes) 919068
attr interpolationmode none
attr source rxPkOk
attr title "packets received OK, sum(packetBytes)"
scalar SingleCell.router0.ppp[1].ppp txPk:count 1768
attr interpolationmode none
attr source packetSentToLower
attr title "packets transmitted, count"
scalar SingleCell.router0.ppp[1].ppp txPk:sum(packetBytes) 284484
attr interpolationmode none
attr source packetSentToLower
attr title "packets transmitted, sum(packetBytes)"
scalar SingleCell.router0.ppp[1].ppp rcvdPkFromHl:count 1768
attr interpolationmode none
attr source packetReceivedFromUpper
attr title "packets received from higher layer, count"
scalar SingleCell.router0.ppp[1].ppp rcvdPkFromHl:sum(packetBytes) 272108
attr interpolationmode none
attr source packetReceivedFromUpper
attr title "packets received from higher layer, sum(packetBytes)"
scalar SingleCell.router0.ppp[1].ppp passedUpPk:count 1824
attr interpolationmode none
attr source packetSentToUpper
attr title "packets passed to higher layer, count"
scalar SingleCell.router0.ppp[1].ppp passedUpPk:sum(packetBytes) 906300
attr interpolationmode none
attr source packetSentToUpper
attr title "packets passed to higher layer, sum(packetBytes)"
scalar SingleCell.router0.ppp[1].ppp packetDropIncorrectlyReceived:count 0
attr interpolationmode none
attr source packetDropReasonIsIncorrectlyReceived(packetDropped)
attr title "packet drop: incorrectly received, count"
scalar SingleCell.router0.ppp[1].ppp packetDropIncorrectlyReceived:sum(packetBytes) 0
attr interpolationmode none
attr source packetDropReasonIsIncorrectlyReceived(packetDropped)
attr title "packet drop: incorrectly received, sum(packetBytes)"
scalar SingleCell.router0.ppp[1].ppp packetDropInterfaceDown:count 0
attr interpolationmode none
attr source packetDropReasonIsInterfaceDown(packetDropped)
attr title "packet drop: interface down, count"
scalar SingleCell.router0.ppp[1].ppp packetDropInterfaceDown:sum(packetBytes) 0
attr interpolationmode none
attr source packetDropReasonIsInterfaceDown(packetDropped)
attr title "packet drop: interface down, sum(packetBytes)"
scalar SingleCell.router0.ipv4.ip packetDropAddressResolutionFailed:count 0
attr interpolationmode none
attr source packetDropReasonIsAddressResolutionFailed(packetDropped)
attr title "packet drop: address resolution failed, count"
scalar SingleCell.router0.ipv4.ip packetDropAddressResolutionFailed:sum(packetBytes) 0
attr interpolationmode none
attr source packetDropReasonIsAddressResolutionFailed(packetDropped)
attr title "packet drop: address resolution failed, sum(packetBytes)"
scalar SingleCell.router0.ipv4.ip packetDropHopLimitReached:count 0
attr interpolationmode none
attr source packetDropReasonIsHopLimitReached(packetDropped)
attr title "packet drop: hop limit reached, count"
scalar SingleCell.router0.ipv4.ip packetDropHopLimitReached:sum(packetBytes) 0
attr interpolationmode none
attr source packetDropReasonIsHopLimitReached(packetDropped)
attr title "packet drop: hop limit reached, sum(packetBytes)"
scalar SingleCell.router0.ipv4.ip packetDropForwardingDisabled:count 0
attr interpolationmode none
attr source packetDropReasonIsForwardingDisabled(packetDropped)
attr title "packet drop: forwarding disabled, count"
scalar SingleCell.router0.ipv4.ip packetDropForwardingDisabled:sum(packetBytes) 0
attr interpolationmode none
attr source packetDropReasonIsForwardingDisabled(packetDropped)
attr title "packet drop: forwarding disabled, sum(packetBytes)"
scalar SingleCell.router0.ipv4.ip packetDropNoInterfaceFound:count 0
attr interpolationmode none
attr source packetDropReasonIsNoInterfaceFound(packetDropped)
attr title "packet drop: no interface found, count"
scalar SingleCell.router0.ipv4.ip packetDropNoInterfaceFound:sum(packetBytes) 0
attr interpolationmode none
attr source packetDropReasonIsNoInterfaceFound(packetDropped)
attr title "packet drop: no interface found, sum(packetBytes)"
scalar SingleCell.router0.ipv4.ip packetDropNoRouteFound:count 0
attr interpolationmode none
attr source packetDropReasonIsNoRouteFound(packetDropped)
attr title "packet drop: no route found, count"
scalar SingleCell.router0.ipv4.ip packetDropNoRouteFound:sum(packetBytes) 0
attr interpolationmode none
attr source packetDropReasonIsNoRouteFound(packetDropped)
attr title "packet drop: no route found, sum(packetBytes)"
scalar SingleCell.router0.ipv4.ip packetDropUndefined:count 0
attr interpolationmode none
attr source packetDropReasonIsUndefined(packetDropped)
attr title "packet drop: undefined, count"
scalar SingleCell.router0.ipv4.ip packetDropUndefined:sum(packetBytes) 0
attr interpolationmode none
attr source packetDropReasonIsUndefined(packetDropped)
attr title "packet drop: undefined, sum(packetBytes)"
scalar SingleCell.router1.lo[0].lo rcvdPkFromHl:count 0
attr interpolationmode none
attr source packetReceivedFromUpper
attr title "packets received from higher layer, count"
scalar SingleCell.router1.lo[0].lo rcvdPkFromHl:sum(packetBytes) 0
attr interpolationmode none
attr source packetReceivedFromUpper
attr title "packets received from higher layer, sum(packetBytes)"
scalar SingleCell.router1.lo[0].lo passedUpPk:count 0
attr interpolationmode none
attr source packetSentToUpper
attr title "packets passed to higher layer, count"
scalar SingleCell.router1.lo[0].lo passedUpPk:sum(packetBytes) 0
attr interpolationmode none
attr source packetSentToUpper
attr title "packets passed to higher layer, sum(packetBytes)"
scalar SingleCell.router1.ppp[0].ppp.queue packetPopped:count 96
attr interpolationmode none
attr title "packet popped, count"
scalar SingleCell.router1.ppp[0].ppp.queue packetPopped:sum(packetBytes) 6628
attr interpolationmode none
attr title "packet popped, sum(packetBytes)"
statistic SingleCell.router1.ppp[0].ppp.queue queueingTime:histogram
field count 96
field mean 0
field stddev 0
field min 0
field max 0
field sum 0
field sqrsum 0
attr interpolationmode none
attr source queueingTime(packetPopped)
attr title "queueing times, histogram"
attr unit s
bin	-inf	0
bin	-0.5	0
bin	-0.48	0
bin	-0.46	0
bin	-0.44	0
bin	-0.42	0
bin	-0.4	0
bin	-0.38	0
bin	-0.36	0
bin	-0.34	0
bin	-0.32	0
bin	-0.3	0
bin	-0.28	0
bin	-0.26	0
bin	-0.24	0
bin	-0.22	0
bin	-0.2	0
bin	-0.18	0
bin	-0.16	0
bin	-0.14	0
bin	-0.12	0
bin	-0.1	0
bin	-0.08	0
bin	-0.06	0
bin	-0.04	0
bin	-0.02	0
bin	0	96
bin	0.02	0
bin	0.04	0
bin	0.06	0
bin	0.08	0
bin	0.1	0
bin	0.12	0
bin	0.14	0
bin	0.16	0
bin	0.18	0
bin	0.2	0
bin	0.22	0
bin	0.24	0
bin	0.26	0
bin	0.28	0
bin	0.3	0
bin	0.32	0
bin	0.34	0
bin	0.36	0
bin	0.38	0
bin	0.4	0
bin	0.42	0
bin	0.44	0
bin	0.46	0
bin	0.48	0
bin	0.5	0
scalar SingleCell.router1.ppp[0].ppp.queue queueLength:max 1
attr interpolationmode sample-hold
attr source "count(packetPushed) - count(packetPopped) - count(packetRemoved) - count(packetDropped)"
attr title "queue length, max"
scalar SingleCell.router1.ppp[0].ppp.queue queueLength:timeavg 0
attr interpolationmode sample-hold
attr source "count(packetPushed) - count(packetPopped) - count(packetRemoved) - count(packetDropped)"
attr title "queue length, timeavg"
scalar SingleCell.router1.ppp[0].ppp.queue packetPushed:count 96
attr interpolationmode none
attr title "packet pushed, count"
scalar SingleCell.router1.ppp[0].ppp.queue packetPushed:sum(packetBytes) 6628
attr interpolationmode none
attr title "packet pushed, sum(packetBytes)"
scalar SingleCell.router1.ppp[0].ppp.queue packetDropQueueOverflow:count 0
attr interpolationmode none
attr source packetDropReasonIsQueueOverflow(packetDropped)
attr title "packet drops: queue overflow, count"
scalar SingleCell.router1.ppp[0].ppp.queue packetDropQueueOverflow:sum(packetBytes) 0
attr interpolationmode none
attr source packetDropReasonIsQueueOverflow(packetDropped)
attr title "packet drops: queue overflow, sum(packetBytes)"
scalar SingleCell.router1.ppp[0].ppp.queue packetRemoved:count 0
attr interpolationmode none
attr title "packets removed, count"
scalar SingleCell.router1.ppp[0].ppp.queue packetRemoved:sum(packetBytes) 0
attr interpolationmode none
attr title "packets removed, sum(packetBytes)"
scalar SingleCell.router1.ppp[0].ppp transmissionState:timeavg 1.9466666666667e-07
attr interpolationmode sample-hold
attr source transmissionStateChanged
attr title "tx state, timeavg"
scalar SingleCell.router1.ppp[0].ppp rxPkOk:count 97
attr interpolationmode none
attr source rxPkOk
attr title "packets received OK, count"
scalar SingleCell.router1.ppp[0].ppp rxPkOk:sum(packetBytes) 57376
attr interpolationmode none
attr source rxPkOk
attr title "packets received OK, sum(packetBytes)"
scalar SingleCell.router1.ppp[0].ppp txPk:count 96
attr interpolationmode none
attr source packetSentToLower
attr title "packets transmitted, count"
scalar SingleCell.router1.ppp[0].ppp txPk:sum(packetBytes) 7300
attr interpolationmode none
attr source packetSentToLower
attr title "packets transmitted, sum(packetBytes)"
scalar SingleCell.router1.ppp[0].ppp rcvdPkFromHl:count 96
attr interpolationmode none
attr source packetReceivedFromUpper
attr title "packets received from higher layer, count"
scalar SingleCell.router1.ppp[0].ppp rcvdPkFromHl:sum(packetBytes) 6628
attr interpolationmode none
attr source packetReceivedFromUpper
attr title "packets received from higher layer, sum(packetBytes)"
scalar SingleCell.router1.ppp[0].ppp passedUpPk:count 97
attr interpolationmode none
attr source packetSentToUpper
attr title "packets passed to higher layer, count"
scalar SingleCell.router1.ppp[0].ppp passedUpPk:sum(packetBytes) 56697
attr interpolationmode none
attr source packetSentToUpper
attr title "packets passed to higher layer, sum(packetBytes)"
scalar SingleCell.router1.ppp[0].ppp packetDropIncorrectlyReceived:count 0
attr interpolationmode none
attr source packetDropReasonIsIncorrectlyReceived(packetDropped)
attr title "packet drop: incorrectly received, count"
scalar SingleCell.router1.ppp[0].ppp packetDropIncorrectlyReceived:sum(packetBytes) 0
attr interpolationmode none
attr source packetDropReasonIsIncorrectlyReceived(packetDropped)
attr title "packet drop: incorrectly received, sum(packetBytes)"
scalar SingleCell.router1.ppp[0].ppp packetDropInterfaceDown:count 0
attr interpolationmode none
attr source packetDropReasonIsInterfaceDown(packetDropped)
attr title "packet drop: interface down, count"
scalar SingleCell.router1.ppp[0].ppp packetDropInterfaceDown:sum(packetBytes) 0
attr interpolationmode none
attr source packetDropReasonIsInterfaceDown(packetDropped)
attr title "packet drop: interface down, sum(packetBytes)"
scalar SingleCell.router1.ppp[1].ppp.queue packetPopped:count 97
attr interpolationmode none
attr title "packet popped, count"
scalar SingleCell.router1.ppp[1].ppp.queue packetPopped:sum(packetBytes) 56697
attr interpolationmode none
attr title "packet popped, sum(packetBytes)"
statistic SingleCell.router1.ppp[1].ppp.queue queueingTime:histogram
field count 97
field mean 3.1670103092784e-09
field stddev 3.1191434192905e-08
field min 0
field max 3.072e-07
field sum 3.072e-07
field sqrsum 9.437184e-14
attr interpolationmode none
attr source queueingTime(packetPopped)
attr title "queueing times, histogram"
attr unit s
bin	-inf	0
bin	-0.5	0
bin	-0.48	0
bin	-0.46	0
bin	-0.44	0
bin	-0.42	0
bin	-0.4	0
bin	-0.38	0
bin	-0.36	0
bin	-0.34	0
bin	-0.32	0
bin	-0.3	0
bin	-0.28	0
bin	-0.26	0
bin	-0.24	0
bin	-0.22	0
bin	-0.2	0
bin	-0.18	0
bin	-0.16	0
bin	-0.14	0
bin	-0.12	0
bin	-0.1	0
bin	-0.08	0
bin	-0.06	0
bin	-0.04	0
bin	-0.02	0
bin	0	97
bin	0.02	0
bin	0.04	0
bin	0.06	0
bin	0.08	0
bin	0.1	0
bin	0.12	0
bin	0.14	0
bin	0.16	0
bin	0.18	0
bin	0.2	0
bin	0.22	0
bin	0.24	0
bin	0.26	0
bin	0.28	0
bin	0.3	0
bin	0.32	0
bin	0.34	0
bin	0.36	0
bin	0.38	0
bin	0.4	0
bin	0.42	0
bin	0.44	0
bin	0.46	0
bin	0.48	0
bin	0.5	0
scalar SingleCell.router1.ppp[1].ppp.queue queueLength:max 1
attr interpolationmode sample-hold
attr source "count(packetPushed) - count(packetPopped) - count(packetRemoved) - count(packetDropped)"
attr title "queue length, max"
scalar SingleCell.router1.ppp[1].ppp.queue queueLength:timeavg 1.0601877892174e-08
attr interpolationmode sample-hold
attr source "count(packetPushed) - count(packetPopped) - count(packetRemoved) - count(packetDropped)"
attr title "queue length, timeavg"
scalar SingleCell.router1.ppp[1].ppp.queue packetPushed:count 97
attr interpolationmode none
attr title "packet pushed, count"
scalar SingleCell.router1.ppp[1].ppp.queue packetPushed:sum(packetBytes) 56697
attr interpolationmode none
attr title "packet pushed, sum(packetBytes)"
scalar SingleCell.router1.ppp[1].ppp.queue packetDropQueueOverflow:count 0
attr interpolationmode none
attr source packetDropReasonIsQueueOverflow(packetDropped)
attr title "packet drops: queue overflow, count"
scalar SingleCell.router1.ppp[1].ppp.queue packetDropQueueOverflow:sum(packetBytes) 0
attr interpolationmode none
attr source packetDropReasonIsQueueOverflow(packetDropped)
attr title "packet drops: queue overflow, sum(packetBytes)"
scalar SingleCell.router1.ppp[1].ppp.queue packetRemoved:count 0
attr interpolationmode none
attr title "packets removed, count"
scalar SingleCell.router1.ppp[1].ppp.queue packetRemoved:sum(packetBytes) 0
attr interpolationmode none
attr title "packets removed, sum(packetBytes)"
scalar SingleCell.router1.ppp[1].ppp transmissionState:timeavg 1.5300266666667e-06
attr interpolationmode sample-hold
attr source transmissionStateChanged
attr title "tx state, timeavg"
scalar SingleCell.router1.ppp[1].ppp rxPkOk:count 96
attr interpolationmode none
attr source rxPkOk
attr title "packets received OK, count"
scalar SingleCell.router1.ppp[1].ppp rxPkOk:sum(packetBytes) 7300
attr interpolationmode none
attr source rxPkOk
attr title "packets received OK, sum(packetBytes)"
scalar SingleCell.router1.ppp[1].ppp txPk:count 97
attr interpolationmode none
attr source packetSentToLower
attr title "packets transmitted, count"
scalar SingleCell.router1.ppp[1].ppp txPk:sum(packetBytes) 57376
attr interpolationmode none
attr source packetSentToLower
attr title "packets transmitted, sum(packetBytes)"
scalar SingleCell.router1.ppp[1].ppp rcvdPkFromHl:count 97
attr interpolationmode none
attr source packetReceivedFromUpper
attr title "packets received from higher layer, count"
scalar SingleCell.router1.ppp[1].ppp rcvdPkFromHl:sum(packetBytes) 56697
attr interpolationmode none
attr source packetReceivedFromUpper
attr title "packets received from higher layer, sum(packetBytes)"
scalar SingleCell.router1.ppp[1].ppp passedUpPk:count 96
attr interpolationmode none
attr source packetSentToUpper
attr title "packets passed to higher layer, count"
scalar SingleCell.router1.ppp[1].ppp passedUpPk:sum(packetBytes) 6628
attr interpolationmode none
attr source packetSentToUpper
attr title "packets passed to higher layer, sum(packetBytes)"
scalar SingleCell.router1.ppp[1].ppp packetDropIncorrectlyReceived:count 0
attr interpolationmode none
attr source packetDropReasonIsIncorrectlyReceived(packetDropped)
attr title "packet drop: incorrectly received, count"
scalar SingleCell.router1.ppp[1].ppp packetDropIncorrectlyReceived:sum(packetBytes) 0
attr interpolationmode none
attr source packetDropReasonIsIncorrectlyReceived(packetDropped)
attr title "packet drop: incorrectly received, sum(packetBytes)"
scalar SingleCell.router1.ppp[1].ppp packetDropInterfaceDown:count 0
attr interpolationmode none
attr source packetDropReasonIsInterfaceDown(packetDropped)
attr title "packet drop: interface down, count"
scalar SingleCell.router1.ppp[1].ppp packetDropInterfaceDown:sum(packetBytes) 0
attr interpolationmode none
attr source packetDropReasonIsInterfaceDown(packetDropped)
attr title "packet drop: interface down, sum(packetBytes)"
scalar SingleCell.router1.ipv4.ip packetDropAddressResolutionFailed:count 0
attr interpolationmode none
attr source packetDropReasonIsAddressResolutionFailed(packetDropped)
attr title "packet drop: address resolution failed, count"
scalar SingleCell.router1.ipv4.ip packetDropAddressResolutionFailed:sum(packetBytes) 0
attr interpolationmode none
attr source packetDropReasonIsAddressResolutionFailed(packetDropped)
attr title "packet drop: address resolution failed, sum(packetBytes)"
scalar SingleCell.router1.ipv4.ip packetDropHopLimitReached:count 0
attr interpolationmode none
attr source packetDropReasonIsHopLimitReached(packetDropped)
attr title "packet drop: hop limit reached, count"
scalar SingleCell.router1.ipv4.ip packetDropHopLimitReached:sum(packetBytes) 0
attr interpolationmode none
attr source packetDropReasonIsHopLimitReached(packetDropped)
attr title "packet drop: hop limit reached, sum(packetBytes)"
scalar SingleCell.router1.ipv4.ip packetDropForwardingDisabled:count 0
attr interpolationmode none
attr source packetDropReasonIsForwardingDisabled(packetDropped)
attr title "packet drop: forwarding disabled, count"
scalar SingleCell.router1.ipv4.ip packetDropForwardingDisabled:sum(packetBytes) 0
attr interpolationmode none
attr source packetDropReasonIsForwardingDisabled(packetDropped)
attr title "packet drop: forwarding disabled, sum(packetBytes)"
scalar SingleCell.router1.ipv4.ip packetDropNoInterfaceFound:count 0
attr interpolationmode none
attr source packetDropReasonIsNoInterfaceFound(packetDropped)
attr title "packet drop: no interface found, count"
scalar SingleCell.router1.ipv4.ip packetDropNoInterfaceFound:sum(packetBytes) 0
attr interpolationmode none
attr source packetDropReasonIsNoInterfaceFound(packetDropped)
attr title "packet drop: no interface found, sum(packetBytes)"
scalar SingleCell.router1.ipv4.ip packetDropNoRouteFound:count 0
attr interpolationmode none
attr source packetDropReasonIsNoRouteFound(packetDropped)
attr title "packet drop: no route found, count"
scalar SingleCell.router1.ipv4.ip packetDropNoRouteFound:sum(packetBytes) 0
attr interpolationmode none
attr source packetDropReasonIsNoRouteFound(packetDropped)
attr title "packet drop: no route found, sum(packetBytes)"
scalar SingleCell.router1.ipv4.ip packetDropUndefined:count 0
attr interpolationmode none
attr source packetDropReasonIsUndefined(packetDropped)
attr title "packet drop: undefined, count"
scalar SingleCell.router1.ipv4.ip packetDropUndefined:sum(packetBytes) 0
attr interpolationmode none
attr source packetDropReasonIsUndefined(packetDropped)
attr title "packet drop: undefined, sum(packetBytes)"
scalar SingleCell.router2.lo[0].lo rcvdPkFromHl:count 0
attr interpolationmode none
attr source packetReceivedFromUpper
attr title "packets received from higher layer, count"
scalar SingleCell.router2.lo[0].lo rcvdPkFromHl:sum(packetBytes) 0
attr interpolationmode none
attr source packetReceivedFromUpper
attr title "packets received from higher layer, sum(packetBytes)"
scalar SingleCell.router2.lo[0].lo passedUpPk:count 0
attr interpolationmode none
attr source packetSentToUpper
attr title "packets passed to higher layer, count"
scalar SingleCell.router2.lo[0].lo passedUpPk:sum(packetBytes) 0
attr interpolationmode none
attr source packetSentToUpper
attr title "packets passed to higher layer, sum(packetBytes)"
scalar SingleCell.router2.ppp[0].ppp.queue packetPopped:count 779
attr interpolationmode none
attr title "packet popped, count"
scalar SingleCell.router2.ppp[0].ppp.queue packetPopped:sum(packetBytes) 153787
attr interpolationmode none
attr title "packet popped, sum(packetBytes)"
statistic SingleCell.router2.ppp[0].ppp.queue queueingTime:histogram
field count 779
field mean 7.8870346598203e-10
field stddev 1.5555651011576e-08
field min 0
field max 3.072e-07
field sum 6.144e-07
field sqrsum 1.8874368e-13
attr interpolationmode none
attr source queueingTime(packetPopped)
attr title "queueing times, histogram"
attr unit s
bin	-inf	0
bin	-0.5	0
bin	-0.48	0
bin	-0.46	0
bin	-0.44	0
bin	-0.42	0
bin	-0.4	0
bin	-0.38	0
bin	-0.36	0
bin	-0.34	0
bin	-0.32	0
bin	-0.3	0
bin	-0.28	0
bin	-0.26	0
bin	-0.24	0
bin	-0.22	0
bin	-0.2	0
bin	-0.18	0
bin	-0.16	0
bin	-0.14	0
bin	-0.12	0
bin	-0.1	0
bin	-0.08	0
bin	-0.06	0
bin	-0.04	0
bin	-0.02	0
bin	0	779
bin	0.02	0
bin	0.04	0
bin	0.06	0
bin	0.08	0
bin	0.1	0
bin	0.12	0
bin	0.14	0
bin	0.16	0
bin	0.18	0
bin	0.2	0
bin	0.22	0
bin	0.24	0
bin	0.26	0
bin	0.28	0
bin	0.3	0
bin	0.32	0
bin	0.34	0
bin	0.36	0
bin	0.38	0
bin	0.4	0
bin	0.42	0
bin	0.44	0
bin	0.46	0
bin	0.48	0
bin	0.5	0
scalar SingleCell.router2.ppp[0].ppp.queue queueLength:max 1
attr interpolationmode sample-hold
attr source "count(packetPushed) - count(packetPopped) - count(packetRemoved) - count(packetDropped)"
attr title "queue length, max"
scalar SingleCell.router2.ppp[0].ppp.queue queueLength:timeavg 2.1214004641199e-08
attr interpolationmode sample-hold
attr source "count(packetPushed) - count(packetPopped) - count(packetRemoved) - count(packetDropped)"
attr title "queue length, timeavg"
scalar SingleCell.router2.ppp[0].ppp.queue packetPushed:count 779
attr interpolationmode none
attr title "packet pushed, count"
scalar SingleCell.router2.ppp[0].ppp.queue packetPushed:sum(packetBytes) 153787
attr interpolationmode none
attr title "packet pushed, sum(packetBytes)"
scalar SingleCell.router2.ppp[0].ppp.queue packetDropQueueOverflow:count 0
attr interpolationmode none
attr source packetDropReasonIsQueueOverflow(packetDropped)
attr title "packet drops: queue overflow, count"
scalar SingleCell.router2.ppp[0].ppp.queue packetDropQueueOverflow:sum(packetBytes) 0
attr interpolationmode none
attr source packetDropReasonIsQueueOverflow(packetDropped)
attr title "packet drops: queue overflow, sum(packetBytes)"
scalar SingleCell.router2.ppp[0].ppp.queue packetRemoved:count 0
attr interpolationmode none
attr title "packets removed, count"
scalar SingleCell.router2.ppp[0].ppp.queue packetRemoved:sum(packetBytes) 0
attr interpolationmode none
attr title "packets removed, sum(packetBytes)"
scalar SingleCell.router2.ppp[0].ppp transmissionState:timeavg 4.2464e-06
attr interpolationmode sample-hold
attr source transmissionStateChanged
attr title "tx state, timeavg"
scalar SingleCell.router2.ppp[0].ppp rxPkOk:count 799
attr interpolationmode none
attr source rxPkOk
attr title "packets received OK, count"
scalar SingleCell.router2.ppp[0].ppp rxPkOk:sum(packetBytes) 372856
attr interpolationmode none
attr source rxPkOk
attr title "packets received OK, sum(packetBytes)"
scalar SingleCell.router2.ppp[0].ppp txPk:count 779
attr interpolationmode none
attr source packetSentToLower
attr title "packets transmitted, count"
scalar SingleCell.router2.ppp[0].ppp txPk:sum(packetBytes) 159240
attr interpolationmode none
attr source packetSentToLower
attr title "packets transmitted, sum(packetBytes)"
scalar SingleCell.router2.ppp[0].ppp rcvdPkFromHl:count 779
attr interpolationmode none
attr source packetReceivedFromUpper
attr title "packets received from higher layer, count"
scalar SingleCell.router2.ppp[0].ppp rcvdPkFromHl:sum(packetBytes) 153787
attr interpolationmode none
attr source packetReceivedFromUpper
attr title "packets received from higher layer, sum(packetBytes)"
scalar SingleCell.router2.ppp[0].ppp passedUpPk:count 799
attr interpolationmode none
attr source packetSentToUpper
attr title "packets passed to higher layer, count"
scalar SingleCell.router2.ppp[0].ppp passedUpPk:sum(packetBytes) 367263
attr interpolationmode none
attr source packetSentToUpper
attr title "packets passed to higher layer, sum(packetBytes)"
scalar SingleCell.router2.ppp[0].ppp packetDropIncorrectlyReceived:count 0
attr interpolationmode none
attr source packetDropReasonIsIncorrectlyReceived(packetDropped)
attr title "packet drop: incorrectly received, count"
scalar SingleCell.router2.ppp[0].ppp packetDropIncorrectlyReceived:sum(packetBytes) 0
attr interpolationmode none
attr source packetDropReasonIsIncorrectlyReceived(packetDropped)
attr title "packet drop: incorrectly received, sum(packetBytes)"
scalar SingleCell.router2.ppp[0].ppp packetDropInterfaceDown:count 0
attr interpolationmode none
attr source packetDropReasonIsInterfaceDown(packetDropped)
attr title "packet drop: interface down, count"
scalar SingleCell.router2.ppp[0].ppp packetDropInterfaceDown:sum(packetBytes) 0
attr interpolationmode none
attr source packetDropReasonIsInterfaceDown(packetDropped)
attr title "packet drop: interface down, sum(packetBytes)"
scalar SingleCell.router2.ppp[1].ppp.queue packetPopped:count 799
attr interpolationmode none
attr title "packet popped, count"
scalar SingleCell.router2.ppp[1].ppp.queue packetPopped:sum(packetBytes) 367263
attr interpolationmode none
attr title "packet popped, sum(packetBytes)"
statistic SingleCell.router2.ppp[1].ppp.queue queueingTime:histogram
field count 799
field mean 4.4535669586984e-09
field stddev 4.0141685583336e-08
field min 0
field max 4.288e-07
field sum 3.5584e-06
field sqrsum 1.3017088e-12
attr interpolationmode none
attr source queueingTime(packetPopped)
attr title "queueing times, histogram"
attr unit s
bin	-inf	0
bin	-0.5	0
bin	-0.48	0
bin	-0.46	0
bin	-0.44	0
bin	-0.42	0
bin	-0.4	0
bin	-0.38	0
bin	-0.36	0
bin	-0.34	0
bin	-0.32	0
bin	-0.3	0
bin	-0.28	0
bin	-0.26	0
bin	-0.24	0
bin	-0.22	0
bin	-0.2	0
bin	-0.18	0
bin	-0.16	0
bin	-0.14	0
bin	-0.12	0
bin	-0.1	0
bin	-0.08	0
bin	-0.06	0
bin	-0.04	0
bin	-0.02	0
bin	0	799
bin	0.02	0
bin	0.04	0
bin	0.06	0
bin	0.08	0
bin	0.1	0
bin	0.12	0
bin	0.14	0
bin	0.16	0
bin	0.18	0
bin	0.2	0
bin	0.22	0
bin	0.24	0
bin	0.26	0
bin	0.28	0
bin	0.3	0
bin	0.32	0
bin	0.34	0
bin	0.36	0
bin	0.38	0
bin	0.4	0
bin	0.42	0
bin	0.44	0
bin	0.46	0
bin	0.48	0
bin	0.5	0
scalar SingleCell.router2.ppp[1].ppp.queue queueLength:max 3
attr interpolationmode sample-hold
attr source "count(packetPushed) - count(packetPopped) - count(packetRemoved) - count(packetDropped)"
attr title "queue length, max"
scalar SingleCell.router2.ppp[1].ppp.queue queueLength:timeavg 1.2280508151571e-07
attr interpolationmode sample-hold
attr source "count(packetPushed) - count(packetPopped) - count(packetRemoved) - count(packetDropped)"
attr title "queue length, timeavg"
scalar SingleCell.router2.ppp[1].ppp.queue packetPushed:count 799
attr interpolationmode none
attr title "packet pushed, count"
scalar SingleCell.router2.ppp[1].ppp.queue packetPushed:sum(packetBytes) 367263
attr interpolationmode none
attr title "packet pushed, sum(packetBytes)"
scalar SingleCell.router2.ppp[1].ppp.queue packetDropQueueOverflow:count 0
attr interpolationmode none
attr source packetDropReasonIsQueueOverflow(packetDropped)
attr title "packet drops: queue overflow, count"
scalar SingleCell.router2.ppp[1].ppp.queue packetDropQueueOverflow:sum(packetBytes) 0
attr interpolationmode none
attr source packetDropReasonIsQueueOverflow(packetDropped)
attr title "packet drops: queue overflow, sum(packetBytes)"
scalar SingleCell.router2.ppp[1].ppp.queue packetRemoved:count 0
attr interpolationmode none
attr title "packets removed, count"
scalar SingleCell.router2.ppp[1].ppp.queue packetRemoved:sum(packetBytes) 0
attr interpolationmode none
attr title "packets removed, sum(packetBytes)"
scalar SingleCell.router2.ppp[1].ppp transmissionState:timeavg 9.9428266666667e-06
attr interpolationmode sample-hold
attr source transmissionStateChanged
attr title "tx state, timeavg"
scalar SingleCell.router2.ppp[1].ppp rxPkOk:count 779
attr interpolationmode none
attr source rxPkOk
attr title "packets received OK, count"
scalar SingleCell.router2.ppp[1].ppp rxPkOk:sum(packetBytes) 159240
attr interpolationmode none
attr source rxPkOk
attr title "packets received OK, sum(packetBytes)"
scalar SingleCell.router2.ppp[1].ppp txPk:count 799
attr interpolationmode none
attr source packetSentToLower
attr title "packets transmitted, count"
scalar SingleCell.router2.ppp[1].ppp txPk:sum(packetBytes) 372856
attr interpolationmode none
attr source packetSentToLower
attr title "packets transmitted, sum(packetBytes)"
scalar SingleCell.router2.ppp[1].ppp rcvdPkFromHl:count 799
attr interpolationmode none
attr source packetReceivedFromUpper
attr title "packets received from higher layer, count"
scalar SingleCell.router2.ppp[1].ppp rcvdPkFromHl:sum(packetBytes) 367263
attr interpolationmode none
attr source packetReceivedFromUpper
attr title "packets received from higher layer, sum(packetBytes)"
scalar SingleCell.router2.ppp[1].ppp passedUpPk:count 779
attr interpolationmode none
attr source packetSentToUpper
attr title "packets passed to higher layer, count"
scalar SingleCell.router2.ppp[1].ppp passedUpPk:sum(packetBytes) 153787
attr interpolationmode none
attr source packetSentToUpper
attr title "packets passed to higher layer, sum(packetBytes)"
scalar SingleCell.router2.ppp[1].ppp packetDropIncorrectlyReceived:count 0
attr interpolationmode none
attr source packetDropReasonIsIncorrectlyReceived(packetDropped)
attr title "packet drop: incorrectly received, count"
scalar SingleCell.router2.ppp[1].ppp packetDropIncorrectlyReceived:sum(packetBytes) 0
attr interpolationmode none
attr source packetDropReasonIsIncorrectlyReceived(packetDropped)
attr title "packet drop: incorrectly received, sum(packetBytes)"
scalar SingleCell.router2.ppp[1].ppp packetDropInterfaceDown:count 0
attr interpolationmode none
attr source packetDropReasonIsInterfaceDown(packetDropped)
attr title "packet drop: interface down, count"
scalar SingleCell.router2.ppp[1].ppp packetDropInterfaceDown:sum(packetBytes) 0
attr interpolationmode none
attr source packetDropReasonIsInterfaceDown(packetDropped)
attr title "packet drop: interface down, sum(packetBytes)"
scalar SingleCell.router2.ipv4.ip packetDropAddressResolutionFailed:count 0
attr interpolationmode none
attr source packetDropReasonIsAddressResolutionFailed(packetDropped)
attr title "packet drop: address resolution failed, count"
scalar SingleCell.router2.ipv4.ip packetDropAddressResolutionFailed:sum(packetBytes) 0
attr interpolationmode none
attr source packetDropReasonIsAddressResolutionFailed(packetDropped)
attr title "packet drop: address resolution failed, sum(packetBytes)"
scalar SingleCell.router2.ipv4.ip packetDropHopLimitReached:count 0
attr interpolationmode none
attr source packetDropReasonIsHopLimitReached(packetDropped)
attr title "packet drop: hop limit reached, count"
scalar SingleCell.router2.ipv4.ip packetDropHopLimitReached:sum(packetBytes) 0
attr interpolationmode none
attr source packetDropReasonIsHopLimitReached(packetDropped)
attr title "packet drop: hop limit reached, sum(packetBytes)"
scalar SingleCell.router2.ipv4.ip packetDropForwardingDisabled:count 0
attr interpolationmode none
attr source packetDropReasonIsForwardingDisabled(packetDropped)
attr title "packet drop: forwarding disabled, count"
scalar SingleCell.router2.ipv4.ip packetDropForwardingDisabled:sum(packetBytes) 0
attr interpolationmode none
attr source packetDropReasonIsForwardingDisabled(packetDropped)
attr title "packet drop: forwarding disabled, sum(packetBytes)"
scalar SingleCell.router2.ipv4.ip packetDropNoInterfaceFound:count 0
attr interpolationmode none
attr source packetDropReasonIsNoInterfaceFound(packetDropped)
attr title "packet drop: no interface found, count"
scalar SingleCell.router2.ipv4.ip packetDropNoInterfaceFound:sum(packetBytes) 0
attr interpolationmode none
attr source packetDropReasonIsNoInterfaceFound(packetDropped)
attr title "packet drop: no interface found, sum(packetBytes)"
scalar SingleCell.router2.ipv4.ip packetDropNoRouteFound:count 0
attr interpolationmode none
attr source packetDropReasonIsNoRouteFound(packetDropped)
attr title "packet drop: no route found, count"
scalar SingleCell.router2.ipv4.ip packetDropNoRouteFound:sum(packetBytes) 0
attr interpolationmode none
attr source packetDropReasonIsNoRouteFound(packetDropped)
attr title "packet drop: no route found, sum(packetBytes)"
scalar SingleCell.router2.ipv4.ip packetDropUndefined:count 0
attr interpolationmode none
attr source packetDropReasonIsUndefined(packetDropped)
attr title "packet drop: undefined, count"
scalar SingleCell.router2.ipv4.ip packetDropUndefined:sum(packetBytes) 0
attr interpolationmode none
attr source packetDropReasonIsUndefined(packetDropped)
attr title "packet drop: undefined, sum(packetBytes)"
scalar SingleCell.router3.lo[0].lo rcvdPkFromHl:count 0
attr interpolationmode none
attr source packetReceivedFromUpper
attr title "packets received from higher layer, count"
scalar SingleCell.router3.lo[0].lo rcvdPkFromHl:sum(packetBytes) 0
attr interpolationmode none
attr source packetReceivedFromUpper
attr title "packets received from higher layer, sum(packetBytes)"
scalar SingleCell.router3.lo[0].lo passedUpPk:count 0
attr interpolationmode none
attr source packetSentToUpper
attr title "packets passed to higher layer, count"
scalar SingleCell.router3.lo[0].lo passedUpPk:sum(packetBytes) 0
attr interpolationmode none
attr source packetSentToUpper
attr title "packets passed to higher layer, sum(packetBytes)"
scalar SingleCell.router3.ppp[0].ppp.queue packetPopped:count 893
attr interpolationmode none
attr title "packet popped, count"
scalar SingleCell.router3.ppp[0].ppp.queue packetPopped:sum(packetBytes) 111693
attr interpolationmode none
attr title "packet popped, sum(packetBytes)"
statistic SingleCell.router3.ppp[0].ppp.queue queueingTime:histogram
field count 893
field mean 3.5834266517357e-10
field stddev 1.0281799101609e-08
field min 0
field max 3.072e-07
field sum 3.2e-07
field sqrsum 9.44128e-14
attr interpolationmode none
attr source queueingTime(packetPopped)
attr title "queueing times, histogram"
attr unit s
bin	-inf	0
bin	-0.5	0
bin	-0.48	0
bin	-0.46	0
bin	-0.44	0
bin	-0.42	0
bin	-0.4	0
bin	-0.38	0
bin	-0.36	0
bin	-0.34	0
bin	-0.32	0
bin	-0.3	0
bin	-0.28	0
bin	-0.26	0
bin	-0.24	0
bin	-0.22	0
bin	-0.2	0
bin	-0.18	0
bin	-0.16	0
bin	-0.14	0
bin	-0.12	0
bin	-0.1	0
bin	-0.08	0
bin	-0.06	0
bin	-0.04	0
bin	-0.02	0
bin	0	893
bin	0.02	0
bin	0.04	0
bin	0.06	0
bin	0.08	0
bin	0.1	0
bin	0.12	0
bin	0.14	0
bin	0.16	0
bin	0.18	0
bin	0.2	0
bin	0.22	0
bin	0.24	0
bin	0.26	0
bin	0.28	0
bin	0.3	0
bin	0.32	0
bin	0.34	0
bin	0.36	0
bin	0.38	0
bin	0.4	0
bin	0.42	0
bin	0.44	0
bin	0.46	0
bin	0.48	0
bin	0.5	0
scalar SingleCell.router3.ppp[0].ppp.queue queueLength:max 1
attr interpolationmode sample-hold
attr source "count(packetPushed) - count(packetPopped) - count(packetRemoved) - count(packetDropped)"
attr title "queue length, max"
scalar SingleCell.router3.ppp[0].ppp.queue queueLength:timeavg 1.1051250216185e-08
attr interpolationmode sample-hold
attr source "count(packetPushed) - count(packetPopped) - count(packetRemoved) - count(packetDropped)"
attr title "queue length, timeavg"
scalar SingleCell.router3.ppp[0].ppp.queue packetPushed:count 893
attr interpolationmode none
attr title "packet pushed, count"
scalar SingleCell.router3.ppp[0].ppp.queue packetPushed:sum(packetBytes) 111693
attr interpolationmode none
attr title "packet pushed, sum(packetBytes)"
scalar SingleCell.router3.ppp[0].ppp.queue packetDropQueueOverflow:count 0
attr interpolationmode none
attr source packetDropReasonIsQueueOverflow(packetDropped)
attr title "packet drops: queue overflow, count"
scalar SingleCell.router3.ppp[0].ppp.queue packetDropQueueOverflow:sum(packetBytes) 0
attr interpolationmode none
attr source packetDropReasonIsQueueOverflow(packetDropped)
attr title "packet drops: queue overflow, sum(packetBytes)"
scalar SingleCell.router3.ppp[0].ppp.queue packetRemoved:count 0
attr interpolationmode none
attr title "packets removed, count"
scalar SingleCell.router3.ppp[0].ppp.queue packetRemoved:sum(packetBytes) 0
attr interpolationmode none
attr title "packets removed, sum(packetBytes)"
scalar SingleCell.router3.ppp[0].ppp transmissionState:timeavg 3.1451733333333e-06
attr interpolationmode sample-hold
attr source transmissionStateChanged
attr title "tx state, timeavg"
scalar SingleCell.router3.ppp[0].ppp rxPkOk:count 928
attr interpolationmode none
attr source rxPkOk
attr title "packets received OK, count"
scalar SingleCell.router3.ppp[0].ppp rxPkOk:sum(packetBytes) 488836
attr interpolationmode none
attr source rxPkOk
attr title "packets received OK, sum(packetBytes)"
scalar SingleCell.router3.ppp[0].ppp txPk:count 893
attr interpolationmode none
attr source packetSentToLower
attr title "packets transmitted, count"
scalar SingleCell.router3.ppp[0].ppp txPk:sum(packetBytes) 117944
attr interpolationmode none
attr source packetSentToLower
attr title "packets transmitted, sum(packetBytes)"
scalar SingleCell.router3.ppp[0].ppp rcvdPkFromHl:count 893
attr interpolationmode none
attr source packetReceivedFromUpper
attr title "packets received from higher layer, count"
scalar SingleCell.router3.ppp[0].ppp rcvdPkFromHl:sum(packetBytes) 111693
attr interpolationmode none
attr source packetReceivedFromUpper
attr title "packets received from higher layer, sum(packetBytes)"
scalar SingleCell.router3.ppp[0].ppp passedUpPk:count 928
attr interpolationmode none
attr source packetSentToUpper
attr title "packets passed to higher layer, count"
scalar SingleCell.router3.ppp[0].ppp passedUpPk:sum(packetBytes) 482340
attr interpolationmode none
attr source packetSentToUpper
attr title "packets passed to higher layer, sum(packetBytes)"
scalar SingleCell.router3.ppp[0].ppp packetDropIncorrectlyReceived:count 0
attr interpolationmode none
attr source packetDropReasonIsIncorrectlyReceived(packetDropped)
attr title "packet drop: incorrectly received, count"
scalar SingleCell.router3.ppp[0].ppp packetDropIncorrectlyReceived:sum(packetBytes) 0
attr interpolationmode none
attr source packetDropReasonIsIncorrectlyReceived(packetDropped)
attr title "packet drop: incorrectly received, sum(packetBytes)"
scalar SingleCell.router3.ppp[0].ppp packetDropInterfaceDown:count 0
attr interpolationmode none
attr source packetDropReasonIsInterfaceDown(packetDropped)
attr title "packet drop: interface down, count"
scalar SingleCell.router3.ppp[0].ppp packetDropInterfaceDown:sum(packetBytes) 0
attr interpolationmode none
attr source packetDropReasonIsInterfaceDown(packetDropped)
attr title "packet drop: interface down, sum(packetBytes)"
scalar SingleCell.router3.ppp[1].ppp.queue packetPopped:count 928
attr interpolationmode none
attr title "packet popped, count"
scalar SingleCell.router3.ppp[1].ppp.queue packetPopped:sum(packetBytes) 482340
attr interpolationmode none
attr title "packet popped, sum(packetBytes)"
statistic SingleCell.router3.ppp[1].ppp.queue queueingTime:histogram
field count 928
field mean 5.551724137931e-09
field stddev 4.5499581861367e-08
field min 0
field max 4.288e-07
field sum 5.152e-06
field sqrsum 1.94768896e-12
attr interpolationmode none
attr source queueingTime(packetPopped)
attr title "queueing times, histogram"
attr unit s
bin	-inf	0
bin	0	914
bin	1e-08	0
bin	2e-08	0
bin	3e-08	0
bin	4e-08	0
bin	5e-08	0
bin	6e-08	0
bin	7e-08	0
bin	8e-08	0
bin	9e-08	0
bin	1e-07	0
bin	1.1e-07	0
bin	1.2e-07	0
bin	1.3e-07	0
bin	1.4e-07	0
bin	1.5e-07	0
bin	1.6e-07	0
bin	1.7e-07	0
bin	1.8e-07	0
bin	1.9e-07	0
bin	2e-07	0
bin	2.1e-07	0
bin	2.2e-07	0
bin	2.3e-07	0
bin	2.4e-07	0
bin	2.5e-07	0
bin	2.6e-07	0
bin	2.7e-07	0
bin	2.8e-07	0
bin	2.9e-07	0
bin	3e-07	7
bin	3.1e-07	0
bin	3.2e-07	0
bin	3.3e-07	0
bin	3.4e-07	0
bin	3.5e-07	0
bin	3.6e-07	0
bin	3.7e-07	0
bin	3.8e-07	0
bin	3.9e-07	0
bin	4e-07	0
bin	4.1e-07	0
bin	4.2e-07	7
bin	4.3e-07	0
bin	4.4e-07	0
bin	4.5e-07	0
bin	4.6e-07	0
bin	4.7e-07	0
bin	4.8e-07	0
bin	4.9e-07	0
bin	5e-07	0
bin	5.1e-07	0
bin	5.2e-07	0
bin	5.3e-07	0
bin	5.4e-07	0
scalar SingleCell.router3.ppp[1].ppp.queue queueLength:max 2
attr interpolationmode sample-hold
attr source "count(packetPushed) - count(packetPopped) - count(packetRemoved) - count(packetDropped)"
attr title "queue length, max"
scalar SingleCell.router3.ppp[1].ppp.queue queueLength:timeavg 1.7776551172437e-07
attr interpolationmode sample-hold
attr source "count(packetPushed) - count(packetPopped) - count(packetRemoved) - count(packetDropped)"
attr title "queue length, timeavg"
scalar SingleCell.router3.ppp[1].ppp.queue packetPushed:count 928
attr interpolationmode none
attr title "packet pushed, count"
scalar SingleCell.router3.ppp[1].ppp.queue packetPushed:sum(packetBytes) 482340
attr interpolationmode none
attr title "packet pushed, sum(packetBytes)"
scalar SingleCell.router3.ppp[1].ppp.queue packetDropQueueOverflow:count 0
attr interpolationmode none
attr source packetDropReasonIsQueueOverflow(packetDropped)
attr title "packet drops: queue overflow, count"
scalar SingleCell.router3.ppp[1].ppp.queue packetDropQueueOverflow:sum(packetBytes) 0
attr interpolationmode none
attr source packetDropReasonIsQueueOverflow(packetDropped)
attr title "packet drops: queue overflow, sum(packetBytes)"
scalar SingleCell.router3.ppp[1].ppp.queue packetRemoved:count 0
attr interpolationmode none
attr title "packets removed, count"
scalar SingleCell.router3.ppp[1].ppp.queue packetRemoved:sum(packetBytes) 0
attr interpolationmode none
attr title "packets removed, sum(packetBytes)"
scalar SingleCell.router3.ppp[1].ppp transmissionState:timeavg 1.3035626666667e-05
attr interpolationmode sample-hold
attr source transmissionStateChanged
attr title "tx state, timeavg"
scalar SingleCell.router3.ppp[1].ppp rxPkOk:count 893
attr interpolationmode none
attr source rxPkOk
attr title "packets received OK, count"
scalar SingleCell.router3.ppp[1].ppp rxPkOk:sum(packetBytes) 117944
attr interpolationmode none
attr source rxPkOk
attr title "packets received OK, sum(packetBytes)"
scalar SingleCell.router3.ppp[1].ppp txPk:count 928
attr interpolationmode none
attr source packetSentToLower
attr title "packets transmitted, count"
scalar SingleCell.router3.ppp[1].ppp txPk:sum(packetBytes) 488836
attr interpolationmode none
attr source packetSentToLower
attr title "packets transmitted, sum(packetBytes)"
scalar SingleCell.router3.ppp[1].ppp rcvdPkFromHl:count 928
attr interpolationmode none
attr source packetReceivedFromUpper
attr title "packets received from higher layer, count"
scalar SingleCell.router3.ppp[1].ppp rcvdPkFromHl:sum(packetBytes) 482340
attr interpolationmode none
attr source packetReceivedFromUpper
attr title "packets received from higher layer, sum(packetBytes)"
scalar SingleCell.router3.ppp[1].ppp passedUpPk:count 893
attr interpolationmode none
attr source packetSentToUpper
attr title "packets passed to higher layer, count"
scalar SingleCell.router3.ppp[1].ppp passedUpPk:sum(packetBytes) 111693
attr interpolationmode none
attr source packetSentToUpper
attr title "packets passed to higher layer, sum(packetBytes)"
scalar SingleCell.router3.ppp[1].ppp packetDropIncorrectlyReceived:count 0
attr interpolationmode none
attr source packetDropReasonIsIncorrectlyReceived(packetDropped)
attr title "packet drop: incorrectly received, count"
scalar SingleCell.router3.ppp[1].ppp packetDropIncorrectlyReceived:sum(packetBytes) 0
attr interpolationmode none
attr source packetDropReasonIsIncorrectlyReceived(packetDropped)
attr title "packet drop: incorrectly received, sum(packetBytes)"
scalar SingleCell.router3.ppp[1].ppp packetDropInterfaceDown:count 0
attr interpolationmode none
attr source packetDropReasonIsInterfaceDown(packetDropped)
attr title "packet drop: interface down, count"
scalar SingleCell.router3.ppp[1].ppp packetDropInterfaceDown:sum(packetBytes) 0
attr interpolationmode none
attr source packetDropReasonIsInterfaceDown(packetDropped)
attr title "packet drop: interface down, sum(packetBytes)"
scalar SingleCell.router3.ipv4.ip packetDropAddressResolutionFailed:count 0
attr interpolationmode none
attr source packetDropReasonIsAddressResolutionFailed(packetDropped)
attr title "packet drop: address resolution failed, count"
scalar SingleCell.router3.ipv4.ip packetDropAddressResolutionFailed:sum(packetBytes) 0
attr interpolationmode none
attr source packetDropReasonIsAddressResolutionFailed(packetDropped)
attr title "packet drop: address resolution failed, sum(packetBytes)"
scalar SingleCell.router3.ipv4.ip packetDropHopLimitReached:count 0
attr interpolationmode none
attr source packetDropReasonIsHopLimitReached(packetDropped)
attr title "packet drop: hop limit reached, count"
scalar SingleCell.router3.ipv4.ip packetDropHopLimitReached:sum(packetBytes) 0
attr interpolationmode none
attr source packetDropReasonIsHopLimitReached(packetDropped)
attr title "packet drop: hop limit reached, sum(packetBytes)"
scalar SingleCell.router3.ipv4.ip packetDropForwardingDisabled:count 0
attr interpolationmode none
attr source packetDropReasonIsForwardingDisabled(packetDropped)
attr title "packet drop: forwarding disabled, count"
scalar SingleCell.router3.ipv4.ip packetDropForwardingDisabled:sum(packetBytes) 0
attr interpolationmode none
attr source packetDropReasonIsForwardingDisabled(packetDropped)
attr title "packet drop: forwarding disabled, sum(packetBytes)"
scalar SingleCell.router3.ipv4.ip packetDropNoInterfaceFound:count 0
attr interpolationmode none
attr source packetDropReasonIsNoInterfaceFound(packetDropped)
attr title "packet drop: no interface found, count"
scalar SingleCell.router3.ipv4.ip packetDropNoInterfaceFound:sum(packetBytes) 0
attr interpolationmode none
attr source packetDropReasonIsNoInterfaceFound(packetDropped)
attr title "packet drop: no interface found, sum(packetBytes)"
scalar SingleCell.router3.ipv4.ip packetDropNoRouteFound:count 0
attr interpolationmode none
attr source packetDropReasonIsNoRouteFound(packetDropped)
attr title "packet drop: no route found, count"
scalar SingleCell.router3.ipv4.ip packetDropNoRouteFound:sum(packetBytes) 0
attr interpolationmode none
attr source packetDropReasonIsNoRouteFound(packetDropped)
attr title "packet drop: no route found, sum(packetBytes)"
scalar SingleCell.router3.ipv4.ip packetDropUndefined:count 0
attr interpolationmode none
attr source packetDropReasonIsUndefined(packetDropped)
attr title "packet drop: undefined, count"
scalar SingleCell.router3.ipv4.ip packetDropUndefined:sum(packetBytes) 0
attr interpolationmode none
attr source packetDropReasonIsUndefined(packetDropped)
attr title "packet drop: undefined, sum(packetBytes)"
scalar SingleCell.pgw.lo[0].lo rcvdPkFromHl:count 0
attr interpolationmode none
attr source packetReceivedFromUpper
attr title "packets received from higher layer, count"
scalar SingleCell.pgw.lo[0].lo rcvdPkFromHl:sum(packetBytes) 0
attr interpolationmode none
attr source packetReceivedFromUpper
attr title "packets received from higher layer, sum(packetBytes)"
scalar SingleCell.pgw.lo[0].lo passedUpPk:count 0
attr interpolationmode none
attr source packetSentToUpper
attr title "packets passed to higher layer, count"
scalar SingleCell.pgw.lo[0].lo passedUpPk:sum(packetBytes) 0
attr interpolationmode none
attr source packetSentToUpper
attr title "packets passed to higher layer, sum(packetBytes)"
scalar SingleCell.pgw.ppp[0].ppp.queue packetPopped:count 1768
attr interpolationmode none
attr title "packet popped, count"
scalar SingleCell.pgw.ppp[0].ppp.queue packetPopped:sum(packetBytes) 272108
attr interpolationmode none
attr title "packet popped, sum(packetBytes)"
statistic SingleCell.pgw.ppp[0].ppp.queue queueingTime:histogram
field count 1768
field mean 1.6298642533937e-08
field stddev 6.02363941375e-08
field min 0
field max 4.896e-07
field sum 2.8816e-05
field sqrsum 6.88108544e-12
attr interpolationmode none
attr source queueingTime(packetPopped)
attr title "queueing times, histogram"
attr unit s
bin	-inf	0
bin	0	1582
bin	1e-08	0
bin	2e-08	0
bin	3e-08	0
bin	4e-08	0
bin	5e-08	0
bin	6e-08	62
bin	7e-08	0
bin	8e-08	0
bin	9e-08	0
bin	1e-07	0
bin	1.1e-07	0
bin	1.2e-07	63
bin	1.3e-07	0
bin	1.4e-07	0
bin	1.5e-07	0
bin	1.6e-07	0
bin	1.7e-07	0
bin	1.8e-07	15
bin	1.9e-07	4
bin	2e-07	0
bin	2.1e-07	0
bin	2.2e-07	0
bin	2.3e-07	0
bin	2.4e-07	22
bin	2.5e-07	0
bin	2.6e-07	0
bin	2.7e-07	0
bin	2.8e-07	0
bin	2.9e-07	0
bin	3e-07	7
bin	3.1e-07	0
bin	3.2e-07	0
bin	3.3e-07	0
bin	3.4e-07	0
bin	3.5e-07	0
bin	3.6e-07	0
bin	3.7e-07	0
bin	3.8e-07	0
bin	3.9e-07	0
bin	4e-07	0
bin	4.1e-07	0
bin	4.2e-07	0
bin	4.3e-07	0
bin	4.4e-07	0
bin	4.5e-07	0
bin	4.6e-07	0
bin	4.7e-07	0
bin	4.8e-07	13
bin	4.9e-07	0
scalar SingleCell.pgw.ppp[0].ppp.queue queueLength:max 5
attr interpolationmode sample-hold
attr source "count(packetPushed) - count(packetPopped) - count(packetRemoved) - count(packetDropped)"
attr title "queue length, max"
scalar SingleCell.pgw.ppp[0].ppp.queue queueLength:timeavg 9.9495891951007e-07
attr interpolationmode sample-hold
attr source "count(packetPushed) - count(packetPopped) - count(packetRemoved) - count(packetDropped)"
attr title "queue length, timeavg"
scalar SingleCell.pgw.ppp[0].ppp.queue packetPushed:count 1768
attr interpolationmode none
attr title "packet pushed, count"
scalar SingleCell.pgw.ppp[0].ppp.queue packetPushed:sum(packetBytes) 272108
attr interpolationmode none
attr title "packet pushed, sum(packetBytes)"
scalar SingleCell.pgw.ppp[0].ppp.queue packetDropQueueOverflow:count 0
attr interpolationmode none
attr source packetDropReasonIsQueueOverflow(packetDropped)
attr title "packet drops: queue overflow, count"
scalar SingleCell.pgw.ppp[0].ppp.queue packetDropQueueOverflow:sum(packetBytes) 0
attr interpolationmode none
attr source packetDropReasonIsQueueOverflow(packetDropped)
attr title "packet drops: queue overflow, sum(packetBytes)"
scalar SingleCell.pgw.ppp[0].ppp.queue packetRemoved:count 0
attr interpolationmode none
attr title "packets removed, count"
scalar SingleCell.pgw.ppp[0].ppp.queue packetRemoved:sum(packetBytes) 0
attr interpolationmode none
attr title "packets removed, sum(packetBytes)"
scalar SingleCell.pgw.ppp[0].ppp transmissionState:timeavg 7.5862399999999e-06
attr interpolationmode sample-hold
attr source transmissionStateChanged
attr title "tx state, timeavg"
scalar SingleCell.pgw.ppp[0].ppp rxPkOk:count 1824
attr interpolationmode none
attr source rxPkOk
attr title "packets received OK, count"
scalar SingleCell.pgw.ppp[0].ppp rxPkOk:sum(packetBytes) 919068
attr interpolationmode none
attr source rxPkOk
attr title "packets received OK, sum(packetBytes)"
scalar SingleCell.pgw.ppp[0].ppp txPk:count 1768
attr interpolationmode none
attr source packetSentToLower
attr title "packets transmitted, count"
scalar SingleCell.pgw.ppp[0].ppp txPk:sum(packetBytes) 284484
attr interpolationmode none
attr source packetSentToLower
attr title "packets transmitted, sum(packetBytes)"
scalar SingleCell.pgw.ppp[0].ppp rcvdPkFromHl:count 1768
attr interpolationmode none
attr source packetReceivedFromUpper
attr title "packets received from higher layer, count"
scalar SingleCell.pgw.ppp[0].ppp rcvdPkFromHl:sum(packetBytes) 272108
attr interpolationmode none
attr source packetReceivedFromUpper
attr title "packets received from higher layer, sum(packetBytes)"
scalar SingleCell.pgw.ppp[0].ppp passedUpPk:count 1824
attr interpolationmode none
attr source packetSentToUpper
attr title "packets passed to higher layer, count"
scalar SingleCell.pgw.ppp[0].ppp passedUpPk:sum(packetBytes) 906300
attr interpolationmode none
attr source packetSentToUpper
attr title "packets passed to higher layer, sum(packetBytes)"
scalar SingleCell.pgw.ppp[0].ppp packetDropIncorrectlyReceived:count 0
attr interpolationmode none
attr source packetDropReasonIsIncorrectlyReceived(packetDropped)
attr title "packet drop: incorrectly received, count"
scalar SingleCell.pgw.ppp[0].ppp packetDropIncorrectlyReceived:sum(packetBytes) 0
attr interpolationmode none
attr source packetDropReasonIsIncorrectlyReceived(packetDropped)
attr title "packet drop: incorrectly received, sum(packetBytes)"
scalar SingleCell.pgw.ppp[0].ppp packetDropInterfaceDown:count 0
attr interpolationmode none
attr source packetDropReasonIsInterfaceDown(packetDropped)
attr title "packet drop: interface down, count"
scalar SingleCell.pgw.ppp[0].ppp packetDropInterfaceDown:sum(packetBytes) 0
attr interpolationmode none
attr source packetDropReasonIsInterfaceDown(packetDropped)
attr title "packet drop: interface down, sum(packetBytes)"
scalar SingleCell.pgw.ppp[1].ppp.queue packetPopped:count 97
attr interpolationmode none
attr title "packet popped, count"
scalar SingleCell.pgw.ppp[1].ppp.queue packetPopped:sum(packetBytes) 56697
attr interpolationmode none
attr title "packet popped, sum(packetBytes)"
statistic SingleCell.pgw.ppp[1].ppp.queue queueingTime:histogram
field count 97
field mean 3.1670103092784e-09
field stddev 3.1191434192905e-08
field min 0
field max 3.072e-07
field sum 3.072e-07
field sqrsum 9.437184e-14
attr interpolationmode none
attr source queueingTime(packetPopped)
attr title "queueing times, histogram"
attr unit s
bin	-inf	0
bin	-0.5	0
bin	-0.48	0
bin	-0.46	0
bin	-0.44	0
bin	-0.42	0
bin	-0.4	0
bin	-0.38	0
bin	-0.36	0
bin	-0.34	0
bin	-0.32	0
bin	-0.3	0
bin	-0.28	0
bin	-0.26	0
bin	-0.24	0
bin	-0.22	0
bin	-0.2	0
bin	-0.18	0
bin	-0.16	0
bin	-0.14	0
bin	-0.12	0
bin	-0.1	0
bin	-0.08	0
bin	-0.06	0
bin	-0.04	0
bin	-0.02	0
bin	0	97
bin	0.02	0
bin	0.04	0
bin	0.06	0
bin	0.08	0
bin	0.1	0
bin	0.12	0
bin	0.14	0
bin	0.16	0
bin	0.18	0
bin	0.2	0
bin	0.22	0
bin	0.24	0
bin	0.26	0
bin	0.28	0
bin	0.3	0
bin	0.32	0
bin	0.34	0
bin	0.36	0
bin	0.38	0
bin	0.4	0
bin	0.42	0
bin	0.44	0
bin	0.46	0
bin	0.48	0
bin	0.5	0
scalar SingleCell.pgw.ppp[1].ppp.queue queueLength:max 1
attr interpolationmode sample-hold
attr source "count(packetPushed) - count(packetPopped) - count(packetRemoved) - count(packetDropped)"
attr title "queue length, max"
scalar SingleCell.pgw.ppp[1].ppp.queue queueLength:timeavg 1.0601877850464e-08
attr interpolationmode sample-hold
attr source "count(packetPushed) - count(packetPopped) - count(packetRemoved) - count(packetDropped)"
attr title "queue length, timeavg"
scalar SingleCell.pgw.ppp[1].ppp.queue packetPushed:count 97
attr interpolationmode none
attr title "packet pushed, count"
scalar SingleCell.pgw.ppp[1].ppp.queue packetPushed:sum(packetBytes) 56697
attr interpolationmode none
attr title "packet pushed, sum(packetBytes)"
scalar SingleCell.pgw.ppp[1].ppp.queue packetDropQueueOverflow:count 0
attr interpolationmode none
attr source packetDropReasonIsQueueOverflow(packetDropped)
attr title "packet drops: queue overflow, count"
scalar SingleCell.pgw.ppp[1].ppp.queue packetDropQueueOverflow:sum(packetBytes) 0
attr interpolationmode none
attr source packetDropReasonIsQueueOverflow(packetDropped)
attr title "packet drops: queue overflow, sum(packetBytes)"
scalar SingleCell.pgw.ppp[1].ppp.queue packetRemoved:count 0
attr interpolationmode none
[...]
attr interpolationmode none
attr source packetReceived
attr title "packets received, sum(packetBytes)"
statistic SingleCell.s.app[15] endToEndDelay:histogram
field count 0
field mean -nan
field stddev nan
field min nan
field max nan
field sum 0
field sqrsum 0
attr interpolationmode none
attr source dataAge(packetReceived)
attr title "end-to-end delay, histogram"
attr unit s
bin	-inf	0
bin	0	0
bin	1	0
statistic SingleCell.s.app[15] endToEndDelay:weightedHistogram
field count 0
field mean -nan
field stddev nan
field min nan
field max nan
field weights 0
field weightedSum 0
field sqrSumWeights 0
field weightedSqrSum 0
attr interpolationmode none
attr source dataAge(packetReceived)
attr title "end-to-end delay, weightedHistogram"
attr unit s
bin	-inf	0
bin	0	0
bin	1	0
scalar SingleCell.s.app[15] packetSent:count 1
attr interpolationmode none
attr source packetSent
attr title "packets sent, count"
scalar SingleCell.s.app[15] packetSent:sum(packetBytes) 50000
attr interpolationmode none
attr source packetSent
attr title "packets sent, sum(packetBytes)"
scalar SingleCell.s.app[16] bytesRcvd 0
scalar SingleCell.s.app[16] bytesSent 50000
scalar SingleCell.s.app[16] packetReceived:count 0
attr interpolationmode none
attr source packetReceived
attr title "packets received, count"
scalar SingleCell.s.app[16] packetReceived:sum(packetBytes) 0
attr interpolationmode none
attr source packetReceived
attr title "packets received, sum(packetBytes)"
statistic SingleCell.s.app[16] endToEndDelay:histogram
field count 0
field mean -nan
field stddev nan
field min nan
field max nan
field sum 0
field sqrsum 0
attr interpolationmode none
attr source dataAge(packetReceived)
attr title "end-to-end delay, histogram"
attr unit s
bin	-inf	0
bin	0	0
bin	1	0
statistic SingleCell.s.app[16] endToEndDelay:weightedHistogram
field count 0
field mean -nan
field stddev nan
field min nan
field max nan
field weights 0
field weightedSum 0
field sqrSumWeights 0
field weightedSqrSum 0
attr interpolationmode none
attr source dataAge(packetReceived)
attr title "end-to-end delay, weightedHistogram"
attr unit s
bin	-inf	0
bin	0	0
bin	1	0
scalar SingleCell.s.app[16] packetSent:count 1
attr interpolationmode none
attr source packetSent
attr title "packets sent, count"
scalar SingleCell.s.app[16] packetSent:sum(packetBytes) 50000
attr interpolationmode none
attr source packetSent
attr title "packets sent, sum(packetBytes)"
scalar SingleCell.s.app[17] bytesRcvd 0
scalar SingleCell.s.app[17] bytesSent 50000
scalar SingleCell.s.app[17] packetReceived:count 0
attr interpolationmode none
attr source packetReceived
attr title "packets received, count"
scalar SingleCell.s.app[17] packetReceived:sum(packetBytes) 0
attr interpolationmode none
attr source packetReceived
attr title "packets received, sum(packetBytes)"
statistic SingleCell.s.app[17] endToEndDelay:histogram
field count 0
field mean -nan
field stddev nan
field min nan
field max nan
field sum 0
field sqrsum 0
attr interpolationmode none
attr source dataAge(packetReceived)
attr title "end-to-end delay, histogram"
attr unit s
bin	-inf	0
bin	0	0
bin	1	0
statistic SingleCell.s.app[17] endToEndDelay:weightedHistogram
field count 0
field mean -nan
field stddev nan
field min nan
field max nan
field weights 0
field weightedSum 0
field sqrSumWeights 0
field weightedSqrSum 0
attr interpolationmode none
attr source dataAge(packetReceived)
attr title "end-to-end delay, weightedHistogram"
attr unit s
bin	-inf	0
bin	0	0
bin	1	0
scalar SingleCell.s.app[17] packetSent:count 1
attr interpolationmode none
attr source packetSent
attr title "packets sent, count"
scalar SingleCell.s.app[17] packetSent:sum(packetBytes) 50000
attr interpolationmode none
attr source packetSent
attr title "packets sent, sum(packetBytes)"
scalar SingleCell.s.app[18] bytesRcvd 0
scalar SingleCell.s.app[18] bytesSent 50000
scalar SingleCell.s.app[18] packetReceived:count 0
attr interpolationmode none
attr source packetReceived
attr title "packets received, count"
scalar SingleCell.s.app[18] packetReceived:sum(packetBytes) 0
attr interpolationmode none
attr source packetReceived
attr title "packets received, sum(packetBytes)"
statistic SingleCell.s.app[18] endToEndDelay:histogram
field count 0
field mean -nan
field stddev nan
field min nan
field max nan
field sum 0
field sqrsum 0
attr interpolationmode none
attr source dataAge(packetReceived)
attr title "end-to-end delay, histogram"
attr unit s
bin	-inf	0
bin	0	0
bin	1	0
statistic SingleCell.s.app[18] endToEndDelay:weightedHistogram
field count 0
field mean -nan
field stddev nan
field min nan
field max nan
field weights 0
field weightedSum 0
field sqrSumWeights 0
field weightedSqrSum 0
attr interpolationmode none
attr source dataAge(packetReceived)
attr title "end-to-end delay, weightedHistogram"
attr unit s
bin	-inf	0
bin	0	0
bin	1	0
scalar SingleCell.s.app[18] packetSent:count 1
attr interpolationmode none
attr source packetSent
attr title "packets sent, count"
scalar SingleCell.s.app[18] packetSent:sum(packetBytes) 50000
attr interpolationmode none
attr source packetSent
attr title "packets sent, sum(packetBytes)"
scalar SingleCell.s.app[19] bytesRcvd 0
scalar SingleCell.s.app[19] bytesSent 50000
scalar SingleCell.s.app[19] packetReceived:count 0
attr interpolationmode none
attr source packetReceived
attr title "packets received, count"
scalar SingleCell.s.app[19] packetReceived:sum(packetBytes) 0
attr interpolationmode none
attr source packetReceived
attr title "packets received, sum(packetBytes)"
statistic SingleCell.s.app[19] endToEndDelay:histogram
field count 0
field mean -nan
field stddev nan
field min nan
field max nan
field sum 0
field sqrsum 0
attr interpolationmode none
attr source dataAge(packetReceived)
attr title "end-to-end delay, histogram"
attr unit s
bin	-inf	0
bin	0	0
bin	1	0
statistic SingleCell.s.app[19] endToEndDelay:weightedHistogram
field count 0
field mean -nan
field stddev nan
field min nan
field max nan
field weights 0
field weightedSum 0
field sqrSumWeights 0
field weightedSqrSum 0
attr interpolationmode none
attr source dataAge(packetReceived)
attr title "end-to-end delay, weightedHistogram"
attr unit s
bin	-inf	0
bin	0	0
bin	1	0
scalar SingleCell.s.app[19] packetSent:count 1
attr interpolationmode none
attr source packetSent
attr title "packets sent, count"
scalar SingleCell.s.app[19] packetSent:sum(packetBytes) 50000
attr interpolationmode none
attr source packetSent
attr title "packets sent, sum(packetBytes)"
scalar SingleCell.s.app[20] bytesRcvd 0
scalar SingleCell.s.app[20] bytesSent 50000
scalar SingleCell.s.app[20] packetReceived:count 0
attr interpolationmode none
attr source packetReceived
attr title "packets received, count"
scalar SingleCell.s.app[20] packetReceived:sum(packetBytes) 0
attr interpolationmode none
attr source packetReceived
attr title "packets received, sum(packetBytes)"
statistic SingleCell.s.app[20] endToEndDelay:histogram
field count 0
field mean -nan
field stddev nan
field min nan
field max nan
field sum 0
field sqrsum 0
attr interpolationmode none
attr source dataAge(packetReceived)
attr title "end-to-end delay, histogram"
attr unit s
bin	-inf	0
bin	0	0
bin	1	0
statistic SingleCell.s.app[20] endToEndDelay:weightedHistogram
field count 0
field mean -nan
field stddev nan
field min nan
field max nan
field weights 0
field weightedSum 0
field sqrSumWeights 0
field weightedSqrSum 0
attr interpolationmode none
attr source dataAge(packetReceived)
attr title "end-to-end delay, weightedHistogram"
attr unit s
bin	-inf	0
bin	0	0
bin	1	0
scalar SingleCell.s.app[20] packetSent:count 1
attr interpolationmode none
attr source packetSent
attr title "packets sent, count"
scalar SingleCell.s.app[20] packetSent:sum(packetBytes) 50000
attr interpolationmode none
attr source packetSent
attr title "packets sent, sum(packetBytes)"
scalar SingleCell.s.app[21] bytesRcvd 0
scalar SingleCell.s.app[21] bytesSent 50000
scalar SingleCell.s.app[21] packetReceived:count 0
attr interpolationmode none
attr source packetReceived
attr title "packets received, count"
scalar SingleCell.s.app[21] packetReceived:sum(packetBytes) 0
attr interpolationmode none
attr source packetReceived
attr title "packets received, sum(packetBytes)"
statistic SingleCell.s.app[21] endToEndDelay:histogram
field count 0
field mean -nan
field stddev nan
field min nan
field max nan
field sum 0
field sqrsum 0
attr interpolationmode none
attr source dataAge(packetReceived)
attr title "end-to-end delay, histogram"
attr unit s
bin	-inf	0
bin	0	0
bin	1	0
statistic SingleCell.s.app[21] endToEndDelay:weightedHistogram
field count 0
field mean -nan
field stddev nan
field min nan
field max nan
field weights 0
field weightedSum 0
field sqrSumWeights 0
field weightedSqrSum 0
attr interpolationmode none
attr source dataAge(packetReceived)
attr title "end-to-end delay, weightedHistogram"
attr unit s
bin	-inf	0
bin	0	0
bin	1	0
scalar SingleCell.s.app[21] packetSent:count 1
attr interpolationmode none
attr source packetSent
attr title "packets sent, count"
scalar SingleCell.s.app[21] packetSent:sum(packetBytes) 50000
attr interpolationmode none
attr source packetSent
attr title "packets sent, sum(packetBytes)"
scalar SingleCell.s.app[22] bytesRcvd 0
scalar SingleCell.s.app[22] bytesSent 50000
scalar SingleCell.s.app[22] packetReceived:count 0
attr interpolationmode none
attr source packetReceived
attr title "packets received, count"
scalar SingleCell.s.app[22] packetReceived:sum(packetBytes) 0
attr interpolationmode none
attr source packetReceived
attr title "packets received, sum(packetBytes)"
statistic SingleCell.s.app[22] endToEndDelay:histogram
field count 0
field mean -nan
field stddev nan
field min nan
field max nan
field sum 0
field sqrsum 0
attr interpolationmode none
attr source dataAge(packetReceived)
attr title "end-to-end delay, histogram"
attr unit s
bin	-inf	0
bin	0	0
bin	1	0
statistic SingleCell.s.app[22] endToEndDelay:weightedHistogram
field count 0
field mean -nan
field stddev nan
field min nan
field max nan
field weights 0
field weightedSum 0
field sqrSumWeights 0
field weightedSqrSum 0
attr interpolationmode none
attr source dataAge(packetReceived)
attr title "end-to-end delay, weightedHistogram"
attr unit s
bin	-inf	0
bin	0	0
bin	1	0
scalar SingleCell.s.app[22] packetSent:count 1
attr interpolationmode none
attr source packetSent
attr title "packets sent, count"
scalar SingleCell.s.app[22] packetSent:sum(packetBytes) 50000
attr interpolationmode none
attr source packetSent
attr title "packets sent, sum(packetBytes)"
scalar SingleCell.s.app[23] bytesRcvd 0
scalar SingleCell.s.app[23] bytesSent 50000
scalar SingleCell.s.app[23] packetReceived:count 0
attr interpolationmode none
attr source packetReceived
attr title "packets received, count"
scalar SingleCell.s.app[23] packetReceived:sum(packetBytes) 0
attr interpolationmode none
attr source packetReceived
attr title "packets received, sum(packetBytes)"
statistic SingleCell.s.app[23] endToEndDelay:histogram
field count 0
field mean -nan
field stddev nan
field min nan
field max nan
field sum 0
field sqrsum 0
attr interpolationmode none
attr source dataAge(packetReceived)
attr title "end-to-end delay, histogram"
attr unit s
bin	-inf	0
bin	0	0
bin	1	0
statistic SingleCell.s.app[23] endToEndDelay:weightedHistogram
field count 0
field mean -nan
field stddev nan
field min nan
field max nan
field weights 0
field weightedSum 0
field sqrSumWeights 0
field weightedSqrSum 0
attr interpolationmode none
attr source dataAge(packetReceived)
attr title "end-to-end delay, weightedHistogram"
attr unit s
bin	-inf	0
bin	0	0
bin	1	0
scalar SingleCell.s.app[23] packetSent:count 1
attr interpolationmode none
attr source packetSent
attr title "packets sent, count"
scalar SingleCell.s.app[23] packetSent:sum(packetBytes) 50000
attr interpolationmode none
attr source packetSent
attr title "packets sent, sum(packetBytes)"
scalar SingleCell.s.app[24] bytesRcvd 0
scalar SingleCell.s.app[24] bytesSent 50000
scalar SingleCell.s.app[24] packetReceived:count 0
attr interpolationmode none
attr source packetReceived
attr title "packets received, count"
scalar SingleCell.s.app[24] packetReceived:sum(packetBytes) 0
attr interpolationmode none
attr source packetReceived
attr title "packets received, sum(packetBytes)"
statistic SingleCell.s.app[24] endToEndDelay:histogram
field count 0
field mean -nan
field stddev nan
field min nan
field max nan
field sum 0
field sqrsum 0
attr interpolationmode none
attr source dataAge(packetReceived)
attr title "end-to-end delay, histogram"
attr unit s
bin	-inf	0
bin	0	0
bin	1	0
statistic SingleCell.s.app[24] endToEndDelay:weightedHistogram
field count 0
field mean -nan
field stddev nan
field min nan
field max nan
field weights 0
field weightedSum 0
field sqrSumWeights 0
field weightedSqrSum 0
attr interpolationmode none
attr source dataAge(packetReceived)
attr title "end-to-end delay, weightedHistogram"
attr unit s
bin	-inf	0
bin	0	0
bin	1	0
scalar SingleCell.s.app[24] packetSent:count 1
attr interpolationmode none
attr source packetSent
attr title "packets sent, count"
scalar SingleCell.s.app[24] packetSent:sum(packetBytes) 50000
attr interpolationmode none
attr source packetSent
attr title "packets sent, sum(packetBytes)"
scalar SingleCell.s.app[25] bytesRcvd 0
scalar SingleCell.s.app[25] bytesSent 50000
scalar SingleCell.s.app[25] packetReceived:count 0
attr interpolationmode none
attr source packetReceived
attr title "packets received, count"
scalar SingleCell.s.app[25] packetReceived:sum(packetBytes) 0
attr interpolationmode none
attr source packetReceived
attr title "packets received, sum(packetBytes)"
statistic SingleCell.s.app[25] endToEndDelay:histogram
field count 0
field mean -nan
field stddev nan
field min nan
field max nan
field sum 0
field sqrsum 0
attr interpolationmode none
attr source dataAge(packetReceived)
attr title "end-to-end delay, histogram"
attr unit s
bin	-inf	0
bin	0	0
bin	1	0
statistic SingleCell.s.app[25] endToEndDelay:weightedHistogram
field count 0
field mean -nan
field stddev nan
field min nan
field max nan
field weights 0
field weightedSum 0
field sqrSumWeights 0
field weightedSqrSum 0
attr interpolationmode none
attr source dataAge(packetReceived)
attr title "end-to-end delay, weightedHistogram"
attr unit s
bin	-inf	0
bin	0	0
bin	1	0
scalar SingleCell.s.app[25] packetSent:count 1
attr interpolationmode none
attr source packetSent
attr title "packets sent, count"
scalar SingleCell.s.app[25] packetSent:sum(packetBytes) 50000
attr interpolationmode none
attr source packetSent
attr title "packets sent, sum(packetBytes)"
scalar SingleCell.s.app[26] bytesRcvd 0
scalar SingleCell.s.app[26] bytesSent 50000
scalar SingleCell.s.app[26] packetReceived:count 0
attr interpolationmode none
attr source packetReceived
attr title "packets received, count"
scalar SingleCell.s.app[26] packetReceived:sum(packetBytes) 0
attr interpolationmode none
attr source packetReceived
attr title "packets received, sum(packetBytes)"
statistic SingleCell.s.app[26] endToEndDelay:histogram
field count 0
field mean -nan
field stddev nan
field min nan
field max nan
field sum 0
field sqrsum 0
attr interpolationmode none
attr source dataAge(packetReceived)
attr title "end-to-end delay, histogram"
attr unit s
bin	-inf	0
bin	0	0
bin	1	0
statistic SingleCell.s.app[26] endToEndDelay:weightedHistogram
field count 0
field mean -nan
field stddev nan
field min nan
field max nan
field weights 0
field weightedSum 0
field sqrSumWeights 0
field weightedSqrSum 0
attr interpolationmode none
attr source dataAge(packetReceived)
attr title "end-to-end delay, weightedHistogram"
attr unit s
bin	-inf	0
bin	0	0
bin	1	0
scalar SingleCell.s.app[26] packetSent:count 1
attr interpolationmode none
attr source packetSent
attr title "packets sent, count"
scalar SingleCell.s.app[26] packetSent:sum(packetBytes) 50000
attr interpolationmode none
attr source packetSent
attr title "packets sent, sum(packetBytes)"
scalar SingleCell.s.app[27] bytesRcvd 0
scalar SingleCell.s.app[27] bytesSent 50000
scalar SingleCell.s.app[27] packetReceived:count 0
attr interpolationmode none
attr source packetReceived
attr title "packets received, count"
scalar SingleCell.s.app[27] packetReceived:sum(packetBytes) 0
attr interpolationmode none
attr source packetReceived
attr title "packets received, sum(packetBytes)"
statistic SingleCell.s.app[27] endToEndDelay:histogram
field count 0
field mean -nan
field stddev nan
field min nan
field max nan
field sum 0
field sqrsum 0
attr interpolationmode none
attr source dataAge(packetReceived)
attr title "end-to-end delay, histogram"
attr unit s
bin	-inf	0
bin	0	0
bin	1	0
statistic SingleCell.s.app[27] endToEndDelay:weightedHistogram
field count 0
field mean -nan
field stddev nan
field min nan
field max nan
field weights 0
field weightedSum 0
field sqrSumWeights 0
field weightedSqrSum 0
attr interpolationmode none
attr source dataAge(packetReceived)
attr title "end-to-end delay, weightedHistogram"
attr unit s
bin	-inf	0
bin	0	0
bin	1	0
scalar SingleCell.s.app[27] packetSent:count 1
attr interpolationmode none
attr source packetSent
attr title "packets sent, count"
scalar SingleCell.s.app[27] packetSent:sum(packetBytes) 50000
attr interpolationmode none
attr source packetSent
attr title "packets sent, sum(packetBytes)"
scalar SingleCell.s.app[28] bytesRcvd 0
scalar SingleCell.s.app[28] bytesSent 50000
scalar SingleCell.s.app[28] packetReceived:count 0
attr interpolationmode none
attr source packetReceived
attr title "packets received, count"
scalar SingleCell.s.app[28] packetReceived:sum(packetBytes) 0
attr interpolationmode none
attr source packetReceived
attr title "packets received, sum(packetBytes)"
statistic SingleCell.s.app[28] endToEndDelay:histogram
field count 0
field mean -nan
field stddev nan
field min nan
field max nan
field sum 0
field sqrsum 0
attr interpolationmode none
attr source dataAge(packetReceived)
attr title "end-to-end delay, histogram"
attr unit s
bin	-inf	0
bin	0	0
bin	1	0
statistic SingleCell.s.app[28] endToEndDelay:weightedHistogram
field count 0
field mean -nan
field stddev nan
field min nan
field max nan
field weights 0
field weightedSum 0
field sqrSumWeights 0
field weightedSqrSum 0
attr interpolationmode none
attr source dataAge(packetReceived)
attr title "end-to-end delay, weightedHistogram"
attr unit s
bin	-inf	0
bin	0	0
bin	1	0
scalar SingleCell.s.app[28] packetSent:count 1
attr interpolationmode none
attr source packetSent
attr title "packets sent, count"
scalar SingleCell.s.app[28] packetSent:sum(packetBytes) 50000
attr interpolationmode none
attr source packetSent
attr title "packets sent, sum(packetBytes)"
scalar SingleCell.s.app[29] bytesRcvd 0
scalar SingleCell.s.app[29] bytesSent 50000
scalar SingleCell.s.app[29] packetReceived:count 0
attr interpolationmode none
attr source packetReceived
attr title "packets received, count"
scalar SingleCell.s.app[29] packetReceived:sum(packetBytes) 0
attr interpolationmode none
attr source packetReceived
attr title "packets received, sum(packetBytes)"
statistic SingleCell.s.app[29] endToEndDelay:histogram
field count 0
field mean -nan
field stddev nan
field min nan
field max nan
field sum 0
field sqrsum 0
attr interpolationmode none
attr source dataAge(packetReceived)
attr title "end-to-end delay, histogram"
attr unit s
bin	-inf	0
bin	0	0
bin	1	0
statistic SingleCell.s.app[29] endToEndDelay:weightedHistogram
field count 0
field mean -nan
field stddev nan
field min nan
field max nan
field weights 0
field weightedSum 0
field sqrSumWeights 0
field weightedSqrSum 0
attr interpolationmode none
attr source dataAge(packetReceived)
attr title "end-to-end delay, weightedHistogram"
attr unit s
bin	-inf	0
bin	0	0
bin	1	0
scalar SingleCell.s.app[29] packetSent:count 1
attr interpolationmode none
attr source packetSent
attr title "packets sent, count"
scalar SingleCell.s.app[29] packetSent:sum(packetBytes) 50000
attr interpolationmode none
attr source packetSent
attr title "packets sent, sum(packetBytes)"
