version 2
run General-8-20221205-13:25:11-36417
attr configname General
attr datetime 20221205-13:25:11
attr experiment General
attr inifile omnetpp.ini
attr iterationvars "$numClientINI=30, $TrainingDeadline=16s, $modelSize=50000B"
attr iterationvarsf numClientINI=30,TrainingDeadline=16s,modelSize=50000B-
attr measurement "$numClientINI=30, $TrainingDeadline=16s, $modelSize=50000B"
attr network SingleCell
attr processid 36417
attr repetition 8
attr replication #8
attr resultdir results
attr runnumber 8
attr seedset 8
itervar TrainingDeadline 16s
itervar modelSize 50000B
itervar numClientINI 30
param **.routingRecorder.enabled false
param *.configurator.config "xmldoc(\"demo.xml\")"
param **.round 8
param **.mobility.constraintAreaMinZ 0m
param **.mobility.constraintAreaMaxZ 0m
param *.s.mobility.initFromDisplayString false
param **.numRbDl 200
param **.numRbUl 200
param **.binder.numBands 200
param *.visualizerMap.sceneVisualizer.typename "\"OpenStreetMapSceneCanvasVisualizer\""
param *.visualizerMap.sceneVisualizer.mapFile "xmldoc(\"haneda.osm\")"
param *.coordinateSystem.sceneLatitude 35.5667000deg
param *.coordinateSystem.sceneLongitude 139.7621000deg
param **.lteNic.phy.enableHandover true
param *.eNB*.numX2Apps 2
param *.eNB0.x2App[0].server.localPort 2000
param *.eNB1.x2App[0].server.localPort 2001
param *.eNB2.x2App[0].server.localPort 2002
param *.eNB3.x2App[0].server.localPort 2003
param *.eNB0.x2App[1].server.localPort 2004
param *.eNB1.x2App[1].server.localPort 2005
param *.eNB2.x2App[1].server.localPort 2006
param *.eNB3.x2App[1].server.localPort 2007
param *.eNB0.x2App[0].client.connectAddress "\"eNB1%x2ppp0\""
param *.eNB0.x2App[1].client.connectAddress "\"eNB3%x2ppp0\""
param *.eNB1.x2App[0].client.connectAddress "\"eNB0%x2ppp0\""
param *.eNB1.x2App[1].client.connectAddress "\"eNB2%x2ppp0\""
param *.eNB2.x2App[0].client.connectAddress "\"eNB1%x2ppp0\""
param *.eNB2.x2App[1].client.connectAddress "\"eNB3%x2ppp0\""
param *.eNB3.x2App[0].client.connectAddress "\"eNB0%x2ppp0\""
param *.eNB3.x2App[1].client.connectAddress "\"eNB2%x2ppp0\""
param **.ueTxPower 26
param **.eNodeBTxPower 40
param **.C[*].macCellId 1
param **.C[*].masterId 1
param **.s.macCellId 1
param **.s.masterId 1
param *.s.mobilityType "\"StationaryMobility\""
param *.s.**.initialX 1280m
param *.s.**.initialY 2800m
param *.s.**.initialZ 0m
param *.C[*].mobilityType "\"SUMOMobility\""
param *.C[*].mobility.constraintAreaMinX 0m
param *.C[*].mobility.constraintAreaMinY 0m
param *.C[*].mobility.constraintAreaMaxX 4939.44m
param *.C[*].mobility.constraintAreaMaxY 6386.11m
param *.configurator.dumpAddresses true
param *.configurator.dumpTopology true
param *.configurator.dumpLinks true
param *.configurator.dumpRoutes true
param **.ipv4.arp.typename "\"GlobalArp\""
param *.*.ipv4.routingTable.netmaskRoutes "\"\""
param **.numClient 30
param **.TrainingDeadline 16s
param *.C[*].numApps 4
param *.C[*].app[0].typename "\"ClientSink\""
param *.C[*].app[0].localPort 3000
param *.C[*].app[1].typename "\"exchangeInfo_broadcast\""
param *.C[*].app[1].destAddresses "\"224.0.0.9\""
param *.C[*].app[1].destPort 6000
param *.C[*].app[1].messageLength 30B
param *.C[*].app[1].sendInterval 0.1s
param *.C[*].app[1].startTime uniform(1s,1.2s)
param *.C[*].app[1].joinLocalMulticastGroups true
param **.checkInterval 3
param *.C[*].app[2].typename "\"exchangeInfo_sink\""
param *.C[*].app[2].localPort 6000
param *.C[*].app[2].multicastGroup "\"224.0.0.9\""
param *.C[*].app[3].typename "\"upload_ClientSession\""
param *.C[*].app[3].connectAddress "\"192.168.0.2\""
param *.C[*].app[3].connectPort 9000
param *.C[*].app[3].sendBytes 50000B
param *.C[*].app[3].localPort 8000
param *.C[*].app[3].tOpen 16s
param *.C[*].app[3].tSend 16s
param *.C[*].app[3].tClose -1s
param *.C[*].app[3].SelectClientNumPerCoverage 2
param **.selectionRange 1600m
param **.modelSize 50000B
param *.s.numApps "30 + 1"
param **.alpha0 0
param **.alpha1 0
param **.alpha2 1
param **.alpha3 1
param *.s.app[0..29].typename "\"Broadcast\""
param *.s.app[0..29].connectAddress "\"192.168.0.\" + string(3 + ancestorIndex(0))"
param *.s.app[0..29].connectPort 3000
param *.s.app[0..29].sendBytes 50000B
param *.s.app[0..29].localPort "4000 + ancestorIndex(0)"
param *.s.app[0..29].tOpen 1.01s
param *.s.app[0..29].tSend 1.015s
param *.s.app[0..29].tClose -1s
param *.s.app[30].typename "\"upload_ServerSink\""
param *.s.app[30].localPort 9000
param **.wlan[0].opMode "\"p\""
param **.wlan[0].radio.typename "\"Ieee80211DimensionalRadio\""
param **.wlan[0].radio.bandName "\"5.9 GHz\""
param **.wlan[0].radio.channelNumber 3
param **.wlan[0].radio.transmitter.power 100mW
param **.wlan[0].radio.bandwidth "10 MHz"
param **.wlan[*].radio.antenna.mobility.typename "\"AttachedMobility\""
param **.wlan[*].radio.antenna.mobility.mobilityModule "\"^.^.^.^.mobility\""
param **.wlan[*].radio.antenna.mobility.offsetX -2.5m
param **.wlan[*].radio.antenna.mobility.offsetZ 1.5m
param **.wlan[*].radio.antenna.mobility.constraintAreaMinX 0m
param **.wlan[*].radio.antenna.mobility.constraintAreaMaxX 0m
param **.wlan[*].radio.antenna.mobility.constraintAreaMinY 0m
param **.wlan[*].radio.antenna.mobility.constraintAreaMaxY 0m
param **.channelModel.dynamic_los true
param *.C[*].app[0].computationCapability uniform(1,20)
param *.C[0].app[1].sampleQuantity 4500
param *.C[1].app[1].sampleQuantity 4500
param *.C[2].app[1].sampleQuantity 4500
param *.C[3].app[1].sampleQuantity 4500
param *.C[4].app[1].sampleQuantity 4500
param *.C[5].app[1].sampleQuantity 4500
param *.C[6].app[1].sampleQuantity 4500
param *.C[7].app[1].sampleQuantity 4500
param *.C[8].app[1].sampleQuantity 4500
param *.C[9].app[1].sampleQuantity 4500
param *.C[10].app[1].sampleQuantity 4500
param *.C[11].app[1].sampleQuantity 4500
param *.C[12].app[1].sampleQuantity 45
param *.C[13].app[1].sampleQuantity 45
param *.C[14].app[1].sampleQuantity 45
param *.C[15].app[1].sampleQuantity 45
param *.C[16].app[1].sampleQuantity 45
param *.C[17].app[1].sampleQuantity 45
param *.C[18].app[1].sampleQuantity 45
param *.C[19].app[1].sampleQuantity 45
param *.C[20].app[1].sampleQuantity 45
param *.C[21].app[1].sampleQuantity 45
param *.C[22].app[1].sampleQuantity 45
param *.C[23].app[1].sampleQuantity 45
param *.C[24].app[1].sampleQuantity 45
param *.C[25].app[1].sampleQuantity 45
param *.C[26].app[1].sampleQuantity 45
param *.C[27].app[1].sampleQuantity 45
param *.C[28].app[1].sampleQuantity 45
param *.C[29].app[1].sampleQuantity 45

scalar SingleCell.eNB0.x2App[0].client ums 1452
scalar SingleCell.eNB0.x2App[1].client ums 1452
scalar SingleCell.eNB1.x2App[0].client ums 1452
scalar SingleCell.eNB1.x2App[1].client ums 1452
scalar SingleCell.eNB2.x2App[0].client ums 1452
scalar SingleCell.eNB2.x2App[1].client ums 1452
scalar SingleCell.eNB3.x2App[0].client ums 1452
scalar SingleCell.eNB3.x2App[1].client ums 1452
scalar SingleCell.radioMedium.propagation "Arrival computation count" 260400
scalar SingleCell.radioMedium "transmission count" 8680
scalar SingleCell.radioMedium "signal send count" 260400
scalar SingleCell.radioMedium "reception computation count" 260400
scalar SingleCell.radioMedium "interference computation count" 789911
scalar SingleCell.radioMedium "reception decision computation count" 72282
scalar SingleCell.radioMedium "listening decision computation count" 457229
scalar SingleCell.radioMedium "reception cache hit" 79.307812969329
attr unit %
scalar SingleCell.radioMedium "interference cache hit" 66.666666666667
attr unit %
scalar SingleCell.radioMedium "noise cache hit" 0
attr unit %
scalar SingleCell.radioMedium "snir cache hit" 50
attr unit %
scalar SingleCell.radioMedium "reception decision cache hit" 50
attr unit %
scalar SingleCell.radioMedium "reception result cache hit" 0
attr unit %
scalar SingleCell.server.lo[0].lo rcvdPkFromHl:count 0
attr interpolationmode none
attr source packetReceivedFromUpper
attr title "packets received from higher layer, count"
scalar SingleCell.server.lo[0].lo rcvdPkFromHl:sum(packetBytes) 0
attr interpolationmode none
attr source packetReceivedFromUpper
attr title "packets received from higher layer, sum(packetBytes)"
scalar SingleCell.server.lo[0].lo passedUpPk:count 0
attr interpolationmode none
attr source packetSentToUpper
attr title "packets passed to higher layer, count"
scalar SingleCell.server.lo[0].lo passedUpPk:sum(packetBytes) 0
attr interpolationmode none
attr source packetSentToUpper
attr title "packets passed to higher layer, sum(packetBytes)"
scalar SingleCell.server.ppp[0].ppp.queue packetPopped:count 0
attr interpolationmode none
attr title "packet popped, count"
scalar SingleCell.server.ppp[0].ppp.queue packetPopped:sum(packetBytes) 0
attr interpolationmode none
attr title "packet popped, sum(packetBytes)"
statistic SingleCell.server.ppp[0].ppp.queue queueingTime:histogram
field count 0
field mean -nan
field stddev nan
field min nan
field max nan
field sum 0
field sqrsum 0
attr interpolationmode none
attr source queueingTime(packetPopped)
attr title "queueing times, histogram"
attr unit s
bin	-inf	0
bin	0	0
bin	1	0
scalar SingleCell.server.ppp[0].ppp.queue queueLength:max nan
attr interpolationmode sample-hold
attr source "count(packetPushed) - count(packetPopped) - count(packetRemoved) - count(packetDropped)"
attr title "queue length, max"
scalar SingleCell.server.ppp[0].ppp.queue queueLength:timeavg -nan
attr interpolationmode sample-hold
attr source "count(packetPushed) - count(packetPopped) - count(packetRemoved) - count(packetDropped)"
attr title "queue length, timeavg"
scalar SingleCell.server.ppp[0].ppp.queue packetPushed:count 0
attr interpolationmode none
attr title "packet pushed, count"
scalar SingleCell.server.ppp[0].ppp.queue packetPushed:sum(packetBytes) 0
attr interpolationmode none
attr title "packet pushed, sum(packetBytes)"
scalar SingleCell.server.ppp[0].ppp.queue packetDropQueueOverflow:count 0
attr interpolationmode none
attr source packetDropReasonIsQueueOverflow(packetDropped)
attr title "packet drops: queue overflow, count"
scalar SingleCell.server.ppp[0].ppp.queue packetDropQueueOverflow:sum(packetBytes) 0
attr interpolationmode none
attr source packetDropReasonIsQueueOverflow(packetDropped)
attr title "packet drops: queue overflow, sum(packetBytes)"
scalar SingleCell.server.ppp[0].ppp.queue packetRemoved:count 0
attr interpolationmode none
attr title "packets removed, count"
scalar SingleCell.server.ppp[0].ppp.queue packetRemoved:sum(packetBytes) 0
attr interpolationmode none
attr title "packets removed, sum(packetBytes)"
scalar SingleCell.server.ppp[0].ppp transmissionState:timeavg 0
attr interpolationmode sample-hold
attr source transmissionStateChanged
attr title "tx state, timeavg"
scalar SingleCell.server.ppp[0].ppp rxPkOk:count 0
attr interpolationmode none
attr source rxPkOk
attr title "packets received OK, count"
scalar SingleCell.server.ppp[0].ppp rxPkOk:sum(packetBytes) 0
attr interpolationmode none
attr source rxPkOk
attr title "packets received OK, sum(packetBytes)"
scalar SingleCell.server.ppp[0].ppp txPk:count 0
attr interpolationmode none
attr source packetSentToLower
attr title "packets transmitted, count"
scalar SingleCell.server.ppp[0].ppp txPk:sum(packetBytes) 0
attr interpolationmode none
attr source packetSentToLower
attr title "packets transmitted, sum(packetBytes)"
scalar SingleCell.server.ppp[0].ppp rcvdPkFromHl:count 0
attr interpolationmode none
attr source packetReceivedFromUpper
attr title "packets received from higher layer, count"
scalar SingleCell.server.ppp[0].ppp rcvdPkFromHl:sum(packetBytes) 0
attr interpolationmode none
attr source packetReceivedFromUpper
attr title "packets received from higher layer, sum(packetBytes)"
scalar SingleCell.server.ppp[0].ppp passedUpPk:count 0
attr interpolationmode none
attr source packetSentToUpper
attr title "packets passed to higher layer, count"
scalar SingleCell.server.ppp[0].ppp passedUpPk:sum(packetBytes) 0
attr interpolationmode none
attr source packetSentToUpper
attr title "packets passed to higher layer, sum(packetBytes)"
scalar SingleCell.server.ppp[0].ppp packetDropIncorrectlyReceived:count 0
attr interpolationmode none
attr source packetDropReasonIsIncorrectlyReceived(packetDropped)
attr title "packet drop: incorrectly received, count"
scalar SingleCell.server.ppp[0].ppp packetDropIncorrectlyReceived:sum(packetBytes) 0
attr interpolationmode none
attr source packetDropReasonIsIncorrectlyReceived(packetDropped)
attr title "packet drop: incorrectly received, sum(packetBytes)"
scalar SingleCell.server.ppp[0].ppp packetDropInterfaceDown:count 0
attr interpolationmode none
attr source packetDropReasonIsInterfaceDown(packetDropped)
attr title "packet drop: interface down, count"
scalar SingleCell.server.ppp[0].ppp packetDropInterfaceDown:sum(packetBytes) 0
attr interpolationmode none
attr source packetDropReasonIsInterfaceDown(packetDropped)
attr title "packet drop: interface down, sum(packetBytes)"
scalar SingleCell.server.ipv4.ip packetDropAddressResolutionFailed:count 0
attr interpolationmode none
attr source packetDropReasonIsAddressResolutionFailed(packetDropped)
attr title "packet drop: address resolution failed, count"
scalar SingleCell.server.ipv4.ip packetDropAddressResolutionFailed:sum(packetBytes) 0
attr interpolationmode none
attr source packetDropReasonIsAddressResolutionFailed(packetDropped)
attr title "packet drop: address resolution failed, sum(packetBytes)"
scalar SingleCell.server.ipv4.ip packetDropHopLimitReached:count 0
attr interpolationmode none
attr source packetDropReasonIsHopLimitReached(packetDropped)
attr title "packet drop: hop limit reached, count"
scalar SingleCell.server.ipv4.ip packetDropHopLimitReached:sum(packetBytes) 0
attr interpolationmode none
attr source packetDropReasonIsHopLimitReached(packetDropped)
attr title "packet drop: hop limit reached, sum(packetBytes)"
scalar SingleCell.server.ipv4.ip packetDropForwardingDisabled:count 0
attr interpolationmode none
attr source packetDropReasonIsForwardingDisabled(packetDropped)
attr title "packet drop: forwarding disabled, count"
scalar SingleCell.server.ipv4.ip packetDropForwardingDisabled:sum(packetBytes) 0
attr interpolationmode none
attr source packetDropReasonIsForwardingDisabled(packetDropped)
attr title "packet drop: forwarding disabled, sum(packetBytes)"
scalar SingleCell.server.ipv4.ip packetDropNoInterfaceFound:count 0
attr interpolationmode none
attr source packetDropReasonIsNoInterfaceFound(packetDropped)
attr title "packet drop: no interface found, count"
scalar SingleCell.server.ipv4.ip packetDropNoInterfaceFound:sum(packetBytes) 0
attr interpolationmode none
attr source packetDropReasonIsNoInterfaceFound(packetDropped)
attr title "packet drop: no interface found, sum(packetBytes)"
scalar SingleCell.server.ipv4.ip packetDropNoRouteFound:count 0
attr interpolationmode none
attr source packetDropReasonIsNoRouteFound(packetDropped)
attr title "packet drop: no route found, count"
scalar SingleCell.server.ipv4.ip packetDropNoRouteFound:sum(packetBytes) 0
attr interpolationmode none
attr source packetDropReasonIsNoRouteFound(packetDropped)
attr title "packet drop: no route found, sum(packetBytes)"
scalar SingleCell.server.ipv4.ip packetDropUndefined:count 0
attr interpolationmode none
attr source packetDropReasonIsUndefined(packetDropped)
attr title "packet drop: undefined, count"
scalar SingleCell.server.ipv4.ip packetDropUndefined:sum(packetBytes) 0
attr interpolationmode none
attr source packetDropReasonIsUndefined(packetDropped)
attr title "packet drop: undefined, sum(packetBytes)"
scalar SingleCell.server.udp packetReceived:count 0
attr interpolationmode none
attr source packetReceived
attr title "packets received, count"
scalar SingleCell.server.udp packetReceived:sum(packetBytes) 0
attr interpolationmode none
attr source packetReceived
attr title "packets received, sum(packetBytes)"
scalar SingleCell.server.udp packetSent:count 0
attr interpolationmode none
attr source packetSent
attr title "packets sent, count"
scalar SingleCell.server.udp packetSent:sum(packetBytes) 0
attr interpolationmode none
attr source packetSent
attr title "packets sent, sum(packetBytes)"
scalar SingleCell.server.udp passedUpPk:count 0
attr interpolationmode none
attr source packetSentToUpper
attr title "packets passed up, count"
scalar SingleCell.server.udp droppedPkWrongPort:count 0
attr interpolationmode none
attr source packetDropReasonIsNoPortFound(packetDropped)
attr title "packets dropped (wrong port), count"
scalar SingleCell.server.udp droppedPkBadChecksum:count 0
attr interpolationmode none
attr source packetDropReasonIsIncorrectlyReceived(packetDropped)
attr title "packets dropped (checksum error), count"
scalar SingleCell.router0.lo[0].lo rcvdPkFromHl:count 0
attr interpolationmode none
attr source packetReceivedFromUpper
attr title "packets received from higher layer, count"
scalar SingleCell.router0.lo[0].lo rcvdPkFromHl:sum(packetBytes) 0
attr interpolationmode none
attr source packetReceivedFromUpper
attr title "packets received from higher layer, sum(packetBytes)"
scalar SingleCell.router0.lo[0].lo passedUpPk:count 0
attr interpolationmode none
attr source packetSentToUpper
attr title "packets passed to higher layer, count"
scalar SingleCell.router0.lo[0].lo passedUpPk:sum(packetBytes) 0
attr interpolationmode none
attr source packetSentToUpper
attr title "packets passed to higher layer, sum(packetBytes)"
scalar SingleCell.router0.ppp[0].ppp.queue packetPopped:count 1901
attr interpolationmode none
attr title "packet popped, count"
scalar SingleCell.router0.ppp[0].ppp.queue packetPopped:sum(packetBytes) 944357
attr interpolationmode none
attr title "packet popped, sum(packetBytes)"
statistic SingleCell.router0.ppp[0].ppp.queue queueingTime:histogram
field count 1901
field mean 1.7373592845871e-08
field stddev 8.2920136067502e-08
field min 0
field max 4.288e-07
field sum 3.30272e-05
field sqrsum 1.363772416e-11
attr interpolationmode none
attr source queueingTime(packetPopped)
attr title "queueing times, histogram"
attr unit s
bin	-inf	0
bin	0	1820
bin	1e-08	0
bin	2e-08	0
bin	3e-08	0
bin	4e-08	0
bin	5e-08	0
bin	6e-08	0
bin	7e-08	0
bin	8e-08	0
bin	9e-08	0
bin	1e-07	0
bin	1.1e-07	0
bin	1.2e-07	0
bin	1.3e-07	0
bin	1.4e-07	0
bin	1.5e-07	0
bin	1.6e-07	0
bin	1.7e-07	0
bin	1.8e-07	0
bin	1.9e-07	0
bin	2e-07	0
bin	2.1e-07	0
bin	2.2e-07	0
bin	2.3e-07	0
bin	2.4e-07	0
bin	2.5e-07	0
bin	2.6e-07	0
bin	2.7e-07	0
bin	2.8e-07	0
bin	2.9e-07	0
bin	3e-07	14
bin	3.1e-07	0
bin	3.2e-07	0
bin	3.3e-07	0
bin	3.4e-07	0
bin	3.5e-07	0
bin	3.6e-07	0
bin	3.7e-07	0
bin	3.8e-07	0
bin	3.9e-07	0
bin	4e-07	0
bin	4.1e-07	0
bin	4.2e-07	67
bin	4.3e-07	0
bin	4.4e-07	0
bin	4.5e-07	0
bin	4.6e-07	0
bin	4.7e-07	0
bin	4.8e-07	0
bin	4.9e-07	0
bin	5e-07	0
bin	5.1e-07	0
bin	5.2e-07	0
bin	5.3e-07	0
bin	5.4e-07	0
scalar SingleCell.router0.ppp[0].ppp.queue queueLength:max 6
attr interpolationmode sample-hold
attr source "count(packetPushed) - count(packetPopped) - count(packetRemoved) - count(packetDropped)"
attr title "queue length, max"
scalar SingleCell.router0.ppp[0].ppp.queue queueLength:timeavg 1.1395762932134e-06
attr interpolationmode sample-hold
attr source "count(packetPushed) - count(packetPopped) - count(packetRemoved) - count(packetDropped)"
attr title "queue length, timeavg"
scalar SingleCell.router0.ppp[0].ppp.queue packetPushed:count 1901
attr interpolationmode none
attr title "packet pushed, count"
scalar SingleCell.router0.ppp[0].ppp.queue packetPushed:sum(packetBytes) 944357
attr interpolationmode none
attr title "packet pushed, sum(packetBytes)"
scalar SingleCell.router0.ppp[0].ppp.queue packetDropQueueOverflow:count 0
attr interpolationmode none
attr source packetDropReasonIsQueueOverflow(packetDropped)
attr title "packet drops: queue overflow, count"
scalar SingleCell.router0.ppp[0].ppp.queue packetDropQueueOverflow:sum(packetBytes) 0
attr interpolationmode none
attr source packetDropReasonIsQueueOverflow(packetDropped)
attr title "packet drops: queue overflow, sum(packetBytes)"
scalar SingleCell.router0.ppp[0].ppp.queue packetRemoved:count 0
attr interpolationmode none
attr title "packets removed, count"
scalar SingleCell.router0.ppp[0].ppp.queue packetRemoved:sum(packetBytes) 0
attr interpolationmode none
attr title "packets removed, sum(packetBytes)"
scalar SingleCell.router0.ppp[0].ppp transmissionState:timeavg 2.5537706666667e-05
attr interpolationmode sample-hold
attr source transmissionStateChanged
attr title "tx state, timeavg"
scalar SingleCell.router0.ppp[0].ppp rxPkOk:count 1853
attr interpolationmode none
attr source rxPkOk
attr title "packets received OK, count"
scalar SingleCell.router0.ppp[0].ppp rxPkOk:sum(packetBytes) 292024
attr interpolationmode none
attr source rxPkOk
attr title "packets received OK, sum(packetBytes)"
scalar SingleCell.router0.ppp[0].ppp txPk:count 1901
attr interpolationmode none
attr source packetSentToLower
attr title "packets transmitted, count"
scalar SingleCell.router0.ppp[0].ppp txPk:sum(packetBytes) 957664
attr interpolationmode none
attr source packetSentToLower
attr title "packets transmitted, sum(packetBytes)"
scalar SingleCell.router0.ppp[0].ppp rcvdPkFromHl:count 1901
attr interpolationmode none
attr source packetReceivedFromUpper
attr title "packets received from higher layer, count"
scalar SingleCell.router0.ppp[0].ppp rcvdPkFromHl:sum(packetBytes) 944357
attr interpolationmode none
attr source packetReceivedFromUpper
attr title "packets received from higher layer, sum(packetBytes)"
scalar SingleCell.router0.ppp[0].ppp passedUpPk:count 1853
attr interpolationmode none
attr source packetSentToUpper
attr title "packets passed to higher layer, count"
scalar SingleCell.router0.ppp[0].ppp passedUpPk:sum(packetBytes) 279053
attr interpolationmode none
attr source packetSentToUpper
attr title "packets passed to higher layer, sum(packetBytes)"
scalar SingleCell.router0.ppp[0].ppp packetDropIncorrectlyReceived:count 0
attr interpolationmode none
attr source packetDropReasonIsIncorrectlyReceived(packetDropped)
attr title "packet drop: incorrectly received, count"
scalar SingleCell.router0.ppp[0].ppp packetDropIncorrectlyReceived:sum(packetBytes) 0
attr interpolationmode none
attr source packetDropReasonIsIncorrectlyReceived(packetDropped)
attr title "packet drop: incorrectly received, sum(packetBytes)"
scalar SingleCell.router0.ppp[0].ppp packetDropInterfaceDown:count 0
attr interpolationmode none
attr source packetDropReasonIsInterfaceDown(packetDropped)
attr title "packet drop: interface down, count"
scalar SingleCell.router0.ppp[0].ppp packetDropInterfaceDown:sum(packetBytes) 0
attr interpolationmode none
attr source packetDropReasonIsInterfaceDown(packetDropped)
attr title "packet drop: interface down, sum(packetBytes)"
scalar SingleCell.router0.ppp[1].ppp.queue packetPopped:count 1853
attr interpolationmode none
attr title "packet popped, count"
scalar SingleCell.router0.ppp[1].ppp.queue packetPopped:sum(packetBytes) 279053
attr interpolationmode none
attr title "packet popped, sum(packetBytes)"
statistic SingleCell.router0.ppp[1].ppp.queue queueingTime:histogram
field count 1853
field mean 3.3571505666487e-09
field stddev 3.7166549425471e-08
field min 0
field max 4.288e-07
field sum 6.2208e-06
field sqrsum 2.5791488e-12
attr interpolationmode none
attr source queueingTime(packetPopped)
attr title "queueing times, histogram"
attr unit s
bin	-inf	0
bin	-0.5	0
bin	-0.48	0
bin	-0.46	0
bin	-0.44	0
bin	-0.42	0
bin	-0.4	0
bin	-0.38	0
bin	-0.36	0
bin	-0.34	0
bin	-0.32	0
bin	-0.3	0
bin	-0.28	0
bin	-0.26	0
bin	-0.24	0
bin	-0.22	0
bin	-0.2	0
bin	-0.18	0
bin	-0.16	0
bin	-0.14	0
bin	-0.12	0
bin	-0.1	0
bin	-0.08	0
bin	-0.06	0
bin	-0.04	0
bin	-0.02	0
bin	0	1853
bin	0.02	0
bin	0.04	0
bin	0.06	0
bin	0.08	0
bin	0.1	0
bin	0.12	0
bin	0.14	0
bin	0.16	0
bin	0.18	0
bin	0.2	0
bin	0.22	0
bin	0.24	0
bin	0.26	0
bin	0.28	0
bin	0.3	0
bin	0.32	0
bin	0.34	0
bin	0.36	0
bin	0.38	0
bin	0.4	0
bin	0.42	0
bin	0.44	0
bin	0.46	0
bin	0.48	0
bin	0.5	0
scalar SingleCell.router0.ppp[1].ppp.queue queueLength:max 6
attr interpolationmode sample-hold
attr source "count(packetPushed) - count(packetPopped) - count(packetRemoved) - count(packetDropped)"
attr title "queue length, max"
scalar SingleCell.router0.ppp[1].ppp.queue queueLength:timeavg 2.1483630589425e-07
attr interpolationmode sample-hold
attr source "count(packetPushed) - count(packetPopped) - count(packetRemoved) - count(packetDropped)"
attr title "queue length, timeavg"
scalar SingleCell.router0.ppp[1].ppp.queue packetPushed:count 1853
attr interpolationmode none
attr title "packet pushed, count"
scalar SingleCell.router0.ppp[1].ppp.queue packetPushed:sum(packetBytes) 279053
attr interpolationmode none
attr title "packet pushed, sum(packetBytes)"
scalar SingleCell.router0.ppp[1].ppp.queue packetDropQueueOverflow:count 0
attr interpolationmode none
attr source packetDropReasonIsQueueOverflow(packetDropped)
attr title "packet drops: queue overflow, count"
scalar SingleCell.router0.ppp[1].ppp.queue packetDropQueueOverflow:sum(packetBytes) 0
attr interpolationmode none
attr source packetDropReasonIsQueueOverflow(packetDropped)
attr title "packet drops: queue overflow, sum(packetBytes)"
scalar SingleCell.router0.ppp[1].ppp.queue packetRemoved:count 0
attr interpolationmode none
attr title "packets removed, count"
scalar SingleCell.router0.ppp[1].ppp.queue packetRemoved:sum(packetBytes) 0
attr interpolationmode none
attr title "packets removed, sum(packetBytes)"
scalar SingleCell.router0.ppp[1].ppp transmissionState:timeavg 7.7873066666665e-06
attr interpolationmode sample-hold
attr source transmissionStateChanged
attr title "tx state, timeavg"
scalar SingleCell.router0.ppp[1].ppp rxPkOk:count 1901
attr interpolationmode none
attr source rxPkOk
attr title "packets received OK, count"
scalar SingleCell.router0.ppp[1].ppp rxPkOk:sum(packetBytes) 957664
attr interpolationmode none
attr source rxPkOk
attr title "packets received OK, sum(packetBytes)"
scalar SingleCell.router0.ppp[1].ppp txPk:count 1853
attr interpolationmode none
attr source packetSentToLower
attr title "packets transmitted, count"
scalar SingleCell.router0.ppp[1].ppp txPk:sum(packetBytes) 292024
attr interpolationmode none
attr source packetSentToLower
attr title "packets transmitted, sum(packetBytes)"
scalar SingleCell.router0.ppp[1].ppp rcvdPkFromHl:count 1853
attr interpolationmode none
attr source packetReceivedFromUpper
attr title "packets received from higher layer, count"
scalar SingleCell.router0.ppp[1].ppp rcvdPkFromHl:sum(packetBytes) 279053
attr interpolationmode none
attr source packetReceivedFromUpper
attr title "packets received from higher layer, sum(packetBytes)"
scalar SingleCell.router0.ppp[1].ppp passedUpPk:count 1901
attr interpolationmode none
attr source packetSentToUpper
attr title "packets passed to higher layer, count"
scalar SingleCell.router0.ppp[1].ppp passedUpPk:sum(packetBytes) 944357
attr interpolationmode none
attr source packetSentToUpper
attr title "packets passed to higher layer, sum(packetBytes)"
scalar SingleCell.router0.ppp[1].ppp packetDropIncorrectlyReceived:count 0
attr interpolationmode none
attr source packetDropReasonIsIncorrectlyReceived(packetDropped)
attr title "packet drop: incorrectly received, count"
scalar SingleCell.router0.ppp[1].ppp packetDropIncorrectlyReceived:sum(packetBytes) 0
attr interpolationmode none
attr source packetDropReasonIsIncorrectlyReceived(packetDropped)
attr title "packet drop: incorrectly received, sum(packetBytes)"
scalar SingleCell.router0.ppp[1].ppp packetDropInterfaceDown:count 0
attr interpolationmode none
attr source packetDropReasonIsInterfaceDown(packetDropped)
attr title "packet drop: interface down, count"
scalar SingleCell.router0.ppp[1].ppp packetDropInterfaceDown:sum(packetBytes) 0
attr interpolationmode none
attr source packetDropReasonIsInterfaceDown(packetDropped)
attr title "packet drop: interface down, sum(packetBytes)"
scalar SingleCell.router0.ipv4.ip packetDropAddressResolutionFailed:count 0
attr interpolationmode none
attr source packetDropReasonIsAddressResolutionFailed(packetDropped)
attr title "packet drop: address resolution failed, count"
scalar SingleCell.router0.ipv4.ip packetDropAddressResolutionFailed:sum(packetBytes) 0
attr interpolationmode none
attr source packetDropReasonIsAddressResolutionFailed(packetDropped)
attr title "packet drop: address resolution failed, sum(packetBytes)"
scalar SingleCell.router0.ipv4.ip packetDropHopLimitReached:count 0
attr interpolationmode none
attr source packetDropReasonIsHopLimitReached(packetDropped)
attr title "packet drop: hop limit reached, count"
scalar SingleCell.router0.ipv4.ip packetDropHopLimitReached:sum(packetBytes) 0
attr interpolationmode none
attr source packetDropReasonIsHopLimitReached(packetDropped)
attr title "packet drop: hop limit reached, sum(packetBytes)"
scalar SingleCell.router0.ipv4.ip packetDropForwardingDisabled:count 0
attr interpolationmode none
attr source packetDropReasonIsForwardingDisabled(packetDropped)
attr title "packet drop: forwarding disabled, count"
scalar SingleCell.router0.ipv4.ip packetDropForwardingDisabled:sum(packetBytes) 0
attr interpolationmode none
attr source packetDropReasonIsForwardingDisabled(packetDropped)
attr title "packet drop: forwarding disabled, sum(packetBytes)"
scalar SingleCell.router0.ipv4.ip packetDropNoInterfaceFound:count 0
attr interpolationmode none
attr source packetDropReasonIsNoInterfaceFound(packetDropped)
attr title "packet drop: no interface found, count"
scalar SingleCell.router0.ipv4.ip packetDropNoInterfaceFound:sum(packetBytes) 0
attr interpolationmode none
attr source packetDropReasonIsNoInterfaceFound(packetDropped)
attr title "packet drop: no interface found, sum(packetBytes)"
scalar SingleCell.router0.ipv4.ip packetDropNoRouteFound:count 0
attr interpolationmode none
attr source packetDropReasonIsNoRouteFound(packetDropped)
attr title "packet drop: no route found, count"
scalar SingleCell.router0.ipv4.ip packetDropNoRouteFound:sum(packetBytes) 0
attr interpolationmode none
attr source packetDropReasonIsNoRouteFound(packetDropped)
attr title "packet drop: no route found, sum(packetBytes)"
scalar SingleCell.router0.ipv4.ip packetDropUndefined:count 0
attr interpolationmode none
attr source packetDropReasonIsUndefined(packetDropped)
attr title "packet drop: undefined, count"
scalar SingleCell.router0.ipv4.ip packetDropUndefined:sum(packetBytes) 0
attr interpolationmode none
attr source packetDropReasonIsUndefined(packetDropped)
attr title "packet drop: undefined, sum(packetBytes)"
scalar SingleCell.router1.lo[0].lo rcvdPkFromHl:count 0
attr interpolationmode none
attr source packetReceivedFromUpper
attr title "packets received from higher layer, count"
scalar SingleCell.router1.lo[0].lo rcvdPkFromHl:sum(packetBytes) 0
attr interpolationmode none
attr source packetReceivedFromUpper
attr title "packets received from higher layer, sum(packetBytes)"
scalar SingleCell.router1.lo[0].lo passedUpPk:count 0
attr interpolationmode none
attr source packetSentToUpper
attr title "packets passed to higher layer, count"
scalar SingleCell.router1.lo[0].lo passedUpPk:sum(packetBytes) 0
attr interpolationmode none
attr source packetSentToUpper
attr title "packets passed to higher layer, sum(packetBytes)"
scalar SingleCell.router1.ppp[0].ppp.queue packetPopped:count 98
attr interpolationmode none
attr title "packet popped, count"
scalar SingleCell.router1.ppp[0].ppp.queue packetPopped:sum(packetBytes) 6770
attr interpolationmode none
attr title "packet popped, sum(packetBytes)"
statistic SingleCell.router1.ppp[0].ppp.queue queueingTime:histogram
field count 98
field mean 3.265306122449e-11
field stddev 3.2324881425671e-10
field min 0
field max 3.2e-09
field sum 3.2e-09
field sqrsum 1.024e-17
attr interpolationmode none
attr source queueingTime(packetPopped)
attr title "queueing times, histogram"
attr unit s
bin	-inf	0
bin	0	97
bin	5e-11	0
bin	1e-10	0
bin	1.5e-10	0
bin	2e-10	0
bin	2.5e-10	0
bin	3e-10	0
bin	3.5e-10	0
bin	4e-10	0
bin	4.5e-10	0
bin	5e-10	0
bin	5.5e-10	0
bin	6e-10	0
bin	6.5e-10	0
bin	7e-10	0
bin	7.5e-10	0
bin	8e-10	0
bin	8.5e-10	0
bin	9e-10	0
bin	9.5e-10	0
bin	1e-09	0
bin	1.05e-09	0
bin	1.1e-09	0
bin	1.15e-09	0
bin	1.2e-09	0
bin	1.25e-09	0
bin	1.3e-09	0
bin	1.35e-09	0
bin	1.4e-09	0
bin	1.45e-09	0
bin	1.5e-09	0
bin	1.55e-09	0
bin	1.6e-09	0
bin	1.65e-09	0
bin	1.7e-09	0
bin	1.75e-09	0
bin	1.8e-09	0
bin	1.85e-09	0
bin	1.9e-09	0
bin	1.95e-09	0
bin	2e-09	0
bin	2.05e-09	0
bin	2.1e-09	0
bin	2.15e-09	0
bin	2.2e-09	0
bin	2.25e-09	0
bin	2.3e-09	0
bin	2.35e-09	0
bin	2.4e-09	0
bin	2.45e-09	0
bin	2.5e-09	0
bin	2.55e-09	0
bin	2.6e-09	0
bin	2.65e-09	0
bin	2.7e-09	0
bin	2.75e-09	0
bin	2.8e-09	0
bin	2.85e-09	0
bin	2.9e-09	0
bin	2.95e-09	0
bin	3e-09	0
bin	3.05e-09	0
bin	3.1e-09	0
bin	3.15e-09	1
bin	3.2e-09	0
bin	3.25e-09	0
bin	3.3e-09	0
bin	3.35e-09	0
bin	3.4e-09	0
bin	3.45e-09	0
bin	3.5e-09	0
bin	3.55e-09	0
bin	3.6e-09	0
bin	3.65e-09	0
bin	3.7e-09	0
bin	3.75e-09	0
bin	3.8e-09	0
bin	3.85e-09	0
bin	3.9e-09	0
bin	3.95e-09	0
bin	4e-09	0
scalar SingleCell.router1.ppp[0].ppp.queue queueLength:max 1
attr interpolationmode sample-hold
attr source "count(packetPushed) - count(packetPopped) - count(packetRemoved) - count(packetDropped)"
attr title "queue length, max"
scalar SingleCell.router1.ppp[0].ppp.queue queueLength:timeavg 1.3402018743051e-10
attr interpolationmode sample-hold
attr source "count(packetPushed) - count(packetPopped) - count(packetRemoved) - count(packetDropped)"
attr title "queue length, timeavg"
scalar SingleCell.router1.ppp[0].ppp.queue packetPushed:count 98
attr interpolationmode none
attr title "packet pushed, count"
scalar SingleCell.router1.ppp[0].ppp.queue packetPushed:sum(packetBytes) 6770
attr interpolationmode none
attr title "packet pushed, sum(packetBytes)"
scalar SingleCell.router1.ppp[0].ppp.queue packetDropQueueOverflow:count 0
attr interpolationmode none
attr source packetDropReasonIsQueueOverflow(packetDropped)
attr title "packet drops: queue overflow, count"
scalar SingleCell.router1.ppp[0].ppp.queue packetDropQueueOverflow:sum(packetBytes) 0
attr interpolationmode none
attr source packetDropReasonIsQueueOverflow(packetDropped)
attr title "packet drops: queue overflow, sum(packetBytes)"
scalar SingleCell.router1.ppp[0].ppp.queue packetRemoved:count 0
attr interpolationmode none
attr title "packets removed, count"
scalar SingleCell.router1.ppp[0].ppp.queue packetRemoved:sum(packetBytes) 0
attr interpolationmode none
attr title "packets removed, sum(packetBytes)"
scalar SingleCell.router1.ppp[0].ppp transmissionState:timeavg 1.9882666666667e-07
attr interpolationmode sample-hold
attr source transmissionStateChanged
attr title "tx state, timeavg"
scalar SingleCell.router1.ppp[0].ppp rxPkOk:count 99
attr interpolationmode none
attr source rxPkOk
attr title "packets received OK, count"
scalar SingleCell.router1.ppp[0].ppp rxPkOk:sum(packetBytes) 57532
attr interpolationmode none
attr source rxPkOk
attr title "packets received OK, sum(packetBytes)"
scalar SingleCell.router1.ppp[0].ppp txPk:count 98
attr interpolationmode none
attr source packetSentToLower
attr title "packets transmitted, count"
scalar SingleCell.router1.ppp[0].ppp txPk:sum(packetBytes) 7456
attr interpolationmode none
attr source packetSentToLower
attr title "packets transmitted, sum(packetBytes)"
scalar SingleCell.router1.ppp[0].ppp rcvdPkFromHl:count 98
attr interpolationmode none
attr source packetReceivedFromUpper
attr title "packets received from higher layer, count"
scalar SingleCell.router1.ppp[0].ppp rcvdPkFromHl:sum(packetBytes) 6770
attr interpolationmode none
attr source packetReceivedFromUpper
attr title "packets received from higher layer, sum(packetBytes)"
scalar SingleCell.router1.ppp[0].ppp passedUpPk:count 99
attr interpolationmode none
attr source packetSentToUpper
attr title "packets passed to higher layer, count"
scalar SingleCell.router1.ppp[0].ppp passedUpPk:sum(packetBytes) 56839
attr interpolationmode none
attr source packetSentToUpper
attr title "packets passed to higher layer, sum(packetBytes)"
scalar SingleCell.router1.ppp[0].ppp packetDropIncorrectlyReceived:count 0
attr interpolationmode none
attr source packetDropReasonIsIncorrectlyReceived(packetDropped)
attr title "packet drop: incorrectly received, count"
scalar SingleCell.router1.ppp[0].ppp packetDropIncorrectlyReceived:sum(packetBytes) 0
attr interpolationmode none
attr source packetDropReasonIsIncorrectlyReceived(packetDropped)
attr title "packet drop: incorrectly received, sum(packetBytes)"
scalar SingleCell.router1.ppp[0].ppp packetDropInterfaceDown:count 0
attr interpolationmode none
attr source packetDropReasonIsInterfaceDown(packetDropped)
attr title "packet drop: interface down, count"
scalar SingleCell.router1.ppp[0].ppp packetDropInterfaceDown:sum(packetBytes) 0
attr interpolationmode none
attr source packetDropReasonIsInterfaceDown(packetDropped)
attr title "packet drop: interface down, sum(packetBytes)"
scalar SingleCell.router1.ppp[1].ppp.queue packetPopped:count 99
attr interpolationmode none
attr title "packet popped, count"
scalar SingleCell.router1.ppp[1].ppp.queue packetPopped:sum(packetBytes) 56839
attr interpolationmode none
attr title "packet popped, sum(packetBytes)"
statistic SingleCell.router1.ppp[1].ppp.queue queueingTime:histogram
field count 99
field mean 3.1030303030303e-09
field stddev 3.0874761684763e-08
field min 0
field max 3.072e-07
field sum 3.072e-07
field sqrsum 9.437184e-14
attr interpolationmode none
attr source queueingTime(packetPopped)
attr title "queueing times, histogram"
attr unit s
bin	-inf	0
bin	-0.5	0
bin	-0.48	0
bin	-0.46	0
bin	-0.44	0
bin	-0.42	0
bin	-0.4	0
bin	-0.38	0
bin	-0.36	0
bin	-0.34	0
bin	-0.32	0
bin	-0.3	0
bin	-0.28	0
bin	-0.26	0
bin	-0.24	0
bin	-0.22	0
bin	-0.2	0
bin	-0.18	0
bin	-0.16	0
bin	-0.14	0
bin	-0.12	0
bin	-0.1	0
bin	-0.08	0
bin	-0.06	0
bin	-0.04	0
bin	-0.02	0
bin	0	99
bin	0.02	0
bin	0.04	0
bin	0.06	0
bin	0.08	0
bin	0.1	0
bin	0.12	0
bin	0.14	0
bin	0.16	0
bin	0.18	0
bin	0.2	0
bin	0.22	0
bin	0.24	0
bin	0.26	0
bin	0.28	0
bin	0.3	0
bin	0.32	0
bin	0.34	0
bin	0.36	0
bin	0.38	0
bin	0.4	0
bin	0.42	0
bin	0.44	0
bin	0.46	0
bin	0.48	0
bin	0.5	0
scalar SingleCell.router1.ppp[1].ppp.queue queueLength:max 1
attr interpolationmode sample-hold
attr source "count(packetPushed) - count(packetPopped) - count(packetRemoved) - count(packetDropped)"
attr title "queue length, max"
scalar SingleCell.router1.ppp[1].ppp.queue queueLength:timeavg 1.0601877892174e-08
attr interpolationmode sample-hold
attr source "count(packetPushed) - count(packetPopped) - count(packetRemoved) - count(packetDropped)"
attr title "queue length, timeavg"
scalar SingleCell.router1.ppp[1].ppp.queue packetPushed:count 99
attr interpolationmode none
attr title "packet pushed, count"
scalar SingleCell.router1.ppp[1].ppp.queue packetPushed:sum(packetBytes) 56839
attr interpolationmode none
attr title "packet pushed, sum(packetBytes)"
scalar SingleCell.router1.ppp[1].ppp.queue packetDropQueueOverflow:count 0
attr interpolationmode none
attr source packetDropReasonIsQueueOverflow(packetDropped)
attr title "packet drops: queue overflow, count"
scalar SingleCell.router1.ppp[1].ppp.queue packetDropQueueOverflow:sum(packetBytes) 0
attr interpolationmode none
attr source packetDropReasonIsQueueOverflow(packetDropped)
attr title "packet drops: queue overflow, sum(packetBytes)"
scalar SingleCell.router1.ppp[1].ppp.queue packetRemoved:count 0
attr interpolationmode none
attr title "packets removed, count"
scalar SingleCell.router1.ppp[1].ppp.queue packetRemoved:sum(packetBytes) 0
attr interpolationmode none
attr title "packets removed, sum(packetBytes)"
scalar SingleCell.router1.ppp[1].ppp transmissionState:timeavg 1.5341866666667e-06
attr interpolationmode sample-hold
attr source transmissionStateChanged
attr title "tx state, timeavg"
scalar SingleCell.router1.ppp[1].ppp rxPkOk:count 98
attr interpolationmode none
attr source rxPkOk
attr title "packets received OK, count"
scalar SingleCell.router1.ppp[1].ppp rxPkOk:sum(packetBytes) 7456
attr interpolationmode none
attr source rxPkOk
attr title "packets received OK, sum(packetBytes)"
scalar SingleCell.router1.ppp[1].ppp txPk:count 99
attr interpolationmode none
attr source packetSentToLower
attr title "packets transmitted, count"
scalar SingleCell.router1.ppp[1].ppp txPk:sum(packetBytes) 57532
attr interpolationmode none
attr source packetSentToLower
attr title "packets transmitted, sum(packetBytes)"
scalar SingleCell.router1.ppp[1].ppp rcvdPkFromHl:count 99
attr interpolationmode none
attr source packetReceivedFromUpper
attr title "packets received from higher layer, count"
scalar SingleCell.router1.ppp[1].ppp rcvdPkFromHl:sum(packetBytes) 56839
attr interpolationmode none
attr source packetReceivedFromUpper
attr title "packets received from higher layer, sum(packetBytes)"
scalar SingleCell.router1.ppp[1].ppp passedUpPk:count 98
attr interpolationmode none
attr source packetSentToUpper
attr title "packets passed to higher layer, count"
scalar SingleCell.router1.ppp[1].ppp passedUpPk:sum(packetBytes) 6770
attr interpolationmode none
attr source packetSentToUpper
attr title "packets passed to higher layer, sum(packetBytes)"
scalar SingleCell.router1.ppp[1].ppp packetDropIncorrectlyReceived:count 0
attr interpolationmode none
attr source packetDropReasonIsIncorrectlyReceived(packetDropped)
attr title "packet drop: incorrectly received, count"
scalar SingleCell.router1.ppp[1].ppp packetDropIncorrectlyReceived:sum(packetBytes) 0
attr interpolationmode none
attr source packetDropReasonIsIncorrectlyReceived(packetDropped)
attr title "packet drop: incorrectly received, sum(packetBytes)"
scalar SingleCell.router1.ppp[1].ppp packetDropInterfaceDown:count 0
attr interpolationmode none
attr source packetDropReasonIsInterfaceDown(packetDropped)
attr title "packet drop: interface down, count"
scalar SingleCell.router1.ppp[1].ppp packetDropInterfaceDown:sum(packetBytes) 0
attr interpolationmode none
attr source packetDropReasonIsInterfaceDown(packetDropped)
attr title "packet drop: interface down, sum(packetBytes)"
scalar SingleCell.router1.ipv4.ip packetDropAddressResolutionFailed:count 0
attr interpolationmode none
attr source packetDropReasonIsAddressResolutionFailed(packetDropped)
attr title "packet drop: address resolution failed, count"
scalar SingleCell.router1.ipv4.ip packetDropAddressResolutionFailed:sum(packetBytes) 0
attr interpolationmode none
attr source packetDropReasonIsAddressResolutionFailed(packetDropped)
attr title "packet drop: address resolution failed, sum(packetBytes)"
scalar SingleCell.router1.ipv4.ip packetDropHopLimitReached:count 0
attr interpolationmode none
attr source packetDropReasonIsHopLimitReached(packetDropped)
attr title "packet drop: hop limit reached, count"
scalar SingleCell.router1.ipv4.ip packetDropHopLimitReached:sum(packetBytes) 0
attr interpolationmode none
attr source packetDropReasonIsHopLimitReached(packetDropped)
attr title "packet drop: hop limit reached, sum(packetBytes)"
scalar SingleCell.router1.ipv4.ip packetDropForwardingDisabled:count 0
attr interpolationmode none
attr source packetDropReasonIsForwardingDisabled(packetDropped)
attr title "packet drop: forwarding disabled, count"
scalar SingleCell.router1.ipv4.ip packetDropForwardingDisabled:sum(packetBytes) 0
attr interpolationmode none
attr source packetDropReasonIsForwardingDisabled(packetDropped)
attr title "packet drop: forwarding disabled, sum(packetBytes)"
scalar SingleCell.router1.ipv4.ip packetDropNoInterfaceFound:count 0
attr interpolationmode none
attr source packetDropReasonIsNoInterfaceFound(packetDropped)
attr title "packet drop: no interface found, count"
scalar SingleCell.router1.ipv4.ip packetDropNoInterfaceFound:sum(packetBytes) 0
attr interpolationmode none
attr source packetDropReasonIsNoInterfaceFound(packetDropped)
attr title "packet drop: no interface found, sum(packetBytes)"
scalar SingleCell.router1.ipv4.ip packetDropNoRouteFound:count 0
attr interpolationmode none
attr source packetDropReasonIsNoRouteFound(packetDropped)
attr title "packet drop: no route found, count"
scalar SingleCell.router1.ipv4.ip packetDropNoRouteFound:sum(packetBytes) 0
attr interpolationmode none
attr source packetDropReasonIsNoRouteFound(packetDropped)
attr title "packet drop: no route found, sum(packetBytes)"
scalar SingleCell.router1.ipv4.ip packetDropUndefined:count 0
attr interpolationmode none
attr source packetDropReasonIsUndefined(packetDropped)
attr title "packet drop: undefined, count"
scalar SingleCell.router1.ipv4.ip packetDropUndefined:sum(packetBytes) 0
attr interpolationmode none
attr source packetDropReasonIsUndefined(packetDropped)
attr title "packet drop: undefined, sum(packetBytes)"
scalar SingleCell.router2.lo[0].lo rcvdPkFromHl:count 0
attr interpolationmode none
attr source packetReceivedFromUpper
attr title "packets received from higher layer, count"
scalar SingleCell.router2.lo[0].lo rcvdPkFromHl:sum(packetBytes) 0
attr interpolationmode none
attr source packetReceivedFromUpper
attr title "packets received from higher layer, sum(packetBytes)"
scalar SingleCell.router2.lo[0].lo passedUpPk:count 0
attr interpolationmode none
attr source packetSentToUpper
attr title "packets passed to higher layer, count"
scalar SingleCell.router2.lo[0].lo passedUpPk:sum(packetBytes) 0
attr interpolationmode none
attr source packetSentToUpper
attr title "packets passed to higher layer, sum(packetBytes)"
scalar SingleCell.router2.ppp[0].ppp.queue packetPopped:count 776
attr interpolationmode none
attr title "packet popped, count"
scalar SingleCell.router2.ppp[0].ppp.queue packetPopped:sum(packetBytes) 153588
attr interpolationmode none
attr title "packet popped, sum(packetBytes)"
statistic SingleCell.router2.ppp[0].ppp.queue queueingTime:histogram
field count 776
field mean 7.5917525773196e-09
field stddev 5.6110268707901e-08
field min 0
field max 4.288e-07
field sum 5.8912e-06
field sqrsum 2.48470528e-12
attr interpolationmode none
attr source queueingTime(packetPopped)
attr title "queueing times, histogram"
attr unit s
bin	-inf	0
bin	-0.5	0
bin	-0.48	0
bin	-0.46	0
bin	-0.44	0
bin	-0.42	0
bin	-0.4	0
bin	-0.38	0
bin	-0.36	0
bin	-0.34	0
bin	-0.32	0
bin	-0.3	0
bin	-0.28	0
bin	-0.26	0
bin	-0.24	0
bin	-0.22	0
bin	-0.2	0
bin	-0.18	0
bin	-0.16	0
bin	-0.14	0
bin	-0.12	0
bin	-0.1	0
bin	-0.08	0
bin	-0.06	0
bin	-0.04	0
bin	-0.02	0
bin	0	776
bin	0.02	0
bin	0.04	0
bin	0.06	0
bin	0.08	0
bin	0.1	0
bin	0.12	0
bin	0.14	0
bin	0.16	0
bin	0.18	0
bin	0.2	0
bin	0.22	0
bin	0.24	0
bin	0.26	0
bin	0.28	0
bin	0.3	0
bin	0.32	0
bin	0.34	0
bin	0.36	0
bin	0.38	0
bin	0.4	0
bin	0.42	0
bin	0.44	0
bin	0.46	0
bin	0.48	0
bin	0.5	0
scalar SingleCell.router2.ppp[0].ppp.queue queueLength:max 6
attr interpolationmode sample-hold
attr source "count(packetPushed) - count(packetPopped) - count(packetRemoved) - count(packetDropped)"
attr title "queue length, max"
scalar SingleCell.router2.ppp[0].ppp.queue queueLength:timeavg 2.0345351647996e-07
attr interpolationmode sample-hold
attr source "count(packetPushed) - count(packetPopped) - count(packetRemoved) - count(packetDropped)"
attr title "queue length, timeavg"
scalar SingleCell.router2.ppp[0].ppp.queue packetPushed:count 776
attr interpolationmode none
attr title "packet pushed, count"
scalar SingleCell.router2.ppp[0].ppp.queue packetPushed:sum(packetBytes) 153588
attr interpolationmode none
attr title "packet pushed, sum(packetBytes)"
scalar SingleCell.router2.ppp[0].ppp.queue packetDropQueueOverflow:count 0
attr interpolationmode none
attr source packetDropReasonIsQueueOverflow(packetDropped)
attr title "packet drops: queue overflow, count"
scalar SingleCell.router2.ppp[0].ppp.queue packetDropQueueOverflow:sum(packetBytes) 0
attr interpolationmode none
attr source packetDropReasonIsQueueOverflow(packetDropped)
attr title "packet drops: queue overflow, sum(packetBytes)"
scalar SingleCell.router2.ppp[0].ppp.queue packetRemoved:count 0
attr interpolationmode none
attr title "packets removed, count"
scalar SingleCell.router2.ppp[0].ppp.queue packetRemoved:sum(packetBytes) 0
attr interpolationmode none
attr title "packets removed, sum(packetBytes)"
scalar SingleCell.router2.ppp[0].ppp transmissionState:timeavg 4.2405333333333e-06
attr interpolationmode sample-hold
attr source transmissionStateChanged
attr title "tx state, timeavg"
scalar SingleCell.router2.ppp[0].ppp rxPkOk:count 780
attr interpolationmode none
attr source rxPkOk
attr title "packets received OK, count"
scalar SingleCell.router2.ppp[0].ppp rxPkOk:sum(packetBytes) 359324
attr interpolationmode none
attr source rxPkOk
attr title "packets received OK, sum(packetBytes)"
scalar SingleCell.router2.ppp[0].ppp txPk:count 776
attr interpolationmode none
attr source packetSentToLower
attr title "packets transmitted, count"
scalar SingleCell.router2.ppp[0].ppp txPk:sum(packetBytes) 159020
attr interpolationmode none
attr source packetSentToLower
attr title "packets transmitted, sum(packetBytes)"
scalar SingleCell.router2.ppp[0].ppp rcvdPkFromHl:count 776
attr interpolationmode none
attr source packetReceivedFromUpper
attr title "packets received from higher layer, count"
scalar SingleCell.router2.ppp[0].ppp rcvdPkFromHl:sum(packetBytes) 153588
attr interpolationmode none
attr source packetReceivedFromUpper
attr title "packets received from higher layer, sum(packetBytes)"
scalar SingleCell.router2.ppp[0].ppp passedUpPk:count 780
attr interpolationmode none
attr source packetSentToUpper
attr title "packets passed to higher layer, count"
scalar SingleCell.router2.ppp[0].ppp passedUpPk:sum(packetBytes) 353864
attr interpolationmode none
attr source packetSentToUpper
attr title "packets passed to higher layer, sum(packetBytes)"
scalar SingleCell.router2.ppp[0].ppp packetDropIncorrectlyReceived:count 0
attr interpolationmode none
attr source packetDropReasonIsIncorrectlyReceived(packetDropped)
attr title "packet drop: incorrectly received, count"
scalar SingleCell.router2.ppp[0].ppp packetDropIncorrectlyReceived:sum(packetBytes) 0
attr interpolationmode none
attr source packetDropReasonIsIncorrectlyReceived(packetDropped)
attr title "packet drop: incorrectly received, sum(packetBytes)"
scalar SingleCell.router2.ppp[0].ppp packetDropInterfaceDown:count 0
attr interpolationmode none
attr source packetDropReasonIsInterfaceDown(packetDropped)
attr title "packet drop: interface down, count"
scalar SingleCell.router2.ppp[0].ppp packetDropInterfaceDown:sum(packetBytes) 0
attr interpolationmode none
attr source packetDropReasonIsInterfaceDown(packetDropped)
attr title "packet drop: interface down, sum(packetBytes)"
scalar SingleCell.router2.ppp[1].ppp.queue packetPopped:count 780
attr interpolationmode none
attr title "packet popped, count"
scalar SingleCell.router2.ppp[1].ppp.queue packetPopped:sum(packetBytes) 353864
attr interpolationmode none
attr title "packet popped, sum(packetBytes)"
statistic SingleCell.router2.ppp[1].ppp.queue queueingTime:histogram
field count 780
field mean 3.0002051282051e-08
field stddev 1.083448267564e-07
field min 0
field max 4.288e-07
field sum 2.34016e-05
field sqrsum 9.84646656e-12
attr interpolationmode none
attr source queueingTime(packetPopped)
attr title "queueing times, histogram"
attr unit s
bin	-inf	0
bin	0	724
bin	5e-09	0
bin	1e-08	0
bin	1.5e-08	0
bin	2e-08	0
bin	2.5e-08	0
bin	3e-08	0
bin	3.5e-08	0
bin	4e-08	0
bin	4.5e-08	0
bin	5e-08	0
bin	5.5e-08	0
bin	6e-08	0
bin	6.5e-08	0
bin	7e-08	0
bin	7.5e-08	0
bin	8e-08	0
bin	8.5e-08	0
bin	9e-08	0
bin	9.5e-08	0
bin	1e-07	0
bin	1.05e-07	0
bin	1.1e-07	0
bin	1.15e-07	0
bin	1.2e-07	0
bin	1.25e-07	0
bin	1.3e-07	0
bin	1.35e-07	0
bin	1.4e-07	0
bin	1.45e-07	0
bin	1.5e-07	0
bin	1.55e-07	0
bin	1.6e-07	0
bin	1.65e-07	0
bin	1.7e-07	0
bin	1.75e-07	0
bin	1.8e-07	0
bin	1.85e-07	0
bin	1.9e-07	0
bin	1.95e-07	0
bin	2e-07	0
bin	2.05e-07	0
bin	2.1e-07	0
bin	2.15e-07	0
bin	2.2e-07	0
bin	2.25e-07	0
bin	2.3e-07	0
bin	2.35e-07	0
bin	2.4e-07	0
bin	2.45e-07	0
bin	2.5e-07	0
bin	2.55e-07	0
bin	2.6e-07	0
bin	2.65e-07	0
bin	2.7e-07	0
bin	2.75e-07	0
bin	2.8e-07	0
bin	2.85e-07	0
bin	2.9e-07	0
bin	2.95e-07	0
bin	3e-07	0
bin	3.05e-07	5
bin	3.1e-07	0
bin	3.15e-07	0
bin	3.2e-07	0
bin	3.25e-07	0
bin	3.3e-07	0
bin	3.35e-07	0
bin	3.4e-07	0
bin	3.45e-07	0
bin	3.5e-07	0
bin	3.55e-07	0
bin	3.6e-07	0
bin	3.65e-07	0
bin	3.7e-07	0
bin	3.75e-07	0
bin	3.8e-07	0
bin	3.85e-07	0
bin	3.9e-07	0
bin	3.95e-07	0
bin	4e-07	0
bin	4.05e-07	0
bin	4.1e-07	0
bin	4.15e-07	0
bin	4.2e-07	0
bin	4.25e-07	51
bin	4.3e-07	0
scalar SingleCell.router2.ppp[1].ppp.queue queueLength:max 6
attr interpolationmode sample-hold
attr source "count(packetPushed) - count(packetPopped) - count(packetRemoved) - count(packetDropped)"
attr title "queue length, max"
scalar SingleCell.router2.ppp[1].ppp.queue queueLength:timeavg 8.0762010892484e-07
attr interpolationmode sample-hold
attr source "count(packetPushed) - count(packetPopped) - count(packetRemoved) - count(packetDropped)"
attr title "queue length, timeavg"
scalar SingleCell.router2.ppp[1].ppp.queue packetPushed:count 780
attr interpolationmode none
attr title "packet pushed, count"
scalar SingleCell.router2.ppp[1].ppp.queue packetPushed:sum(packetBytes) 353864
attr interpolationmode none
attr title "packet pushed, sum(packetBytes)"
scalar SingleCell.router2.ppp[1].ppp.queue packetDropQueueOverflow:count 0
attr interpolationmode none
attr source packetDropReasonIsQueueOverflow(packetDropped)
attr title "packet drops: queue overflow, count"
scalar SingleCell.router2.ppp[1].ppp.queue packetDropQueueOverflow:sum(packetBytes) 0
attr interpolationmode none
attr source packetDropReasonIsQueueOverflow(packetDropped)
attr title "packet drops: queue overflow, sum(packetBytes)"
scalar SingleCell.router2.ppp[1].ppp.queue packetRemoved:count 0
attr interpolationmode none
attr title "packets removed, count"
scalar SingleCell.router2.ppp[1].ppp.queue packetRemoved:sum(packetBytes) 0
attr interpolationmode none
attr title "packets removed, sum(packetBytes)"
scalar SingleCell.router2.ppp[1].ppp transmissionState:timeavg 9.5819733333334e-06
attr interpolationmode sample-hold
attr source transmissionStateChanged
attr title "tx state, timeavg"
scalar SingleCell.router2.ppp[1].ppp rxPkOk:count 776
attr interpolationmode none
attr source rxPkOk
attr title "packets received OK, count"
scalar SingleCell.router2.ppp[1].ppp rxPkOk:sum(packetBytes) 159020
attr interpolationmode none
attr source rxPkOk
attr title "packets received OK, sum(packetBytes)"
scalar SingleCell.router2.ppp[1].ppp txPk:count 780
attr interpolationmode none
attr source packetSentToLower
attr title "packets transmitted, count"
scalar SingleCell.router2.ppp[1].ppp txPk:sum(packetBytes) 359324
attr interpolationmode none
attr source packetSentToLower
attr title "packets transmitted, sum(packetBytes)"
scalar SingleCell.router2.ppp[1].ppp rcvdPkFromHl:count 780
attr interpolationmode none
attr source packetReceivedFromUpper
attr title "packets received from higher layer, count"
scalar SingleCell.router2.ppp[1].ppp rcvdPkFromHl:sum(packetBytes) 353864
attr interpolationmode none
attr source packetReceivedFromUpper
attr title "packets received from higher layer, sum(packetBytes)"
scalar SingleCell.router2.ppp[1].ppp passedUpPk:count 776
attr interpolationmode none
attr source packetSentToUpper
attr title "packets passed to higher layer, count"
scalar SingleCell.router2.ppp[1].ppp passedUpPk:sum(packetBytes) 153588
attr interpolationmode none
attr source packetSentToUpper
attr title "packets passed to higher layer, sum(packetBytes)"
scalar SingleCell.router2.ppp[1].ppp packetDropIncorrectlyReceived:count 0
attr interpolationmode none
attr source packetDropReasonIsIncorrectlyReceived(packetDropped)
attr title "packet drop: incorrectly received, count"
scalar SingleCell.router2.ppp[1].ppp packetDropIncorrectlyReceived:sum(packetBytes) 0
attr interpolationmode none
attr source packetDropReasonIsIncorrectlyReceived(packetDropped)
attr title "packet drop: incorrectly received, sum(packetBytes)"
scalar SingleCell.router2.ppp[1].ppp packetDropInterfaceDown:count 0
attr interpolationmode none
attr source packetDropReasonIsInterfaceDown(packetDropped)
attr title "packet drop: interface down, count"
scalar SingleCell.router2.ppp[1].ppp packetDropInterfaceDown:sum(packetBytes) 0
attr interpolationmode none
attr source packetDropReasonIsInterfaceDown(packetDropped)
attr title "packet drop: interface down, sum(packetBytes)"
scalar SingleCell.router2.ipv4.ip packetDropAddressResolutionFailed:count 0
attr interpolationmode none
attr source packetDropReasonIsAddressResolutionFailed(packetDropped)
attr title "packet drop: address resolution failed, count"
scalar SingleCell.router2.ipv4.ip packetDropAddressResolutionFailed:sum(packetBytes) 0
attr interpolationmode none
attr source packetDropReasonIsAddressResolutionFailed(packetDropped)
attr title "packet drop: address resolution failed, sum(packetBytes)"
scalar SingleCell.router2.ipv4.ip packetDropHopLimitReached:count 0
attr interpolationmode none
attr source packetDropReasonIsHopLimitReached(packetDropped)
attr title "packet drop: hop limit reached, count"
scalar SingleCell.router2.ipv4.ip packetDropHopLimitReached:sum(packetBytes) 0
attr interpolationmode none
attr source packetDropReasonIsHopLimitReached(packetDropped)
attr title "packet drop: hop limit reached, sum(packetBytes)"
scalar SingleCell.router2.ipv4.ip packetDropForwardingDisabled:count 0
attr interpolationmode none
attr source packetDropReasonIsForwardingDisabled(packetDropped)
attr title "packet drop: forwarding disabled, count"
scalar SingleCell.router2.ipv4.ip packetDropForwardingDisabled:sum(packetBytes) 0
attr interpolationmode none
attr source packetDropReasonIsForwardingDisabled(packetDropped)
attr title "packet drop: forwarding disabled, sum(packetBytes)"
scalar SingleCell.router2.ipv4.ip packetDropNoInterfaceFound:count 0
attr interpolationmode none
attr source packetDropReasonIsNoInterfaceFound(packetDropped)
attr title "packet drop: no interface found, count"
scalar SingleCell.router2.ipv4.ip packetDropNoInterfaceFound:sum(packetBytes) 0
attr interpolationmode none
attr source packetDropReasonIsNoInterfaceFound(packetDropped)
attr title "packet drop: no interface found, sum(packetBytes)"
scalar SingleCell.router2.ipv4.ip packetDropNoRouteFound:count 0
attr interpolationmode none
attr source packetDropReasonIsNoRouteFound(packetDropped)
attr title "packet drop: no route found, count"
scalar SingleCell.router2.ipv4.ip packetDropNoRouteFound:sum(packetBytes) 0
attr interpolationmode none
attr source packetDropReasonIsNoRouteFound(packetDropped)
attr title "packet drop: no route found, sum(packetBytes)"
scalar SingleCell.router2.ipv4.ip packetDropUndefined:count 0
attr interpolationmode none
attr source packetDropReasonIsUndefined(packetDropped)
attr title "packet drop: undefined, count"
scalar SingleCell.router2.ipv4.ip packetDropUndefined:sum(packetBytes) 0
attr interpolationmode none
attr source packetDropReasonIsUndefined(packetDropped)
attr title "packet drop: undefined, sum(packetBytes)"
scalar SingleCell.router3.lo[0].lo rcvdPkFromHl:count 0
attr interpolationmode none
attr source packetReceivedFromUpper
attr title "packets received from higher layer, count"
scalar SingleCell.router3.lo[0].lo rcvdPkFromHl:sum(packetBytes) 0
attr interpolationmode none
attr source packetReceivedFromUpper
attr title "packets received from higher layer, sum(packetBytes)"
scalar SingleCell.router3.lo[0].lo passedUpPk:count 0
attr interpolationmode none
attr source packetSentToUpper
attr title "packets passed to higher layer, count"
scalar SingleCell.router3.lo[0].lo passedUpPk:sum(packetBytes) 0
attr interpolationmode none
attr source packetSentToUpper
attr title "packets passed to higher layer, sum(packetBytes)"
scalar SingleCell.router3.ppp[0].ppp.queue packetPopped:count 979
attr interpolationmode none
attr title "packet popped, count"
scalar SingleCell.router3.ppp[0].ppp.queue packetPopped:sum(packetBytes) 118695
attr interpolationmode none
attr title "packet popped, sum(packetBytes)"
statistic SingleCell.router3.ppp[0].ppp.queue queueingTime:histogram
field count 979
field mean 3.3340143003064e-10
field stddev 9.820706483841e-09
field min 0
field max 3.072e-07
field sum 3.264e-07
field sqrsum 9.443328e-14
attr interpolationmode none
attr source queueingTime(packetPopped)
attr title "queueing times, histogram"
attr unit s
bin	-inf	0
bin	-0.5	0
bin	-0.48	0
bin	-0.46	0
bin	-0.44	0
bin	-0.42	0
bin	-0.4	0
bin	-0.38	0
bin	-0.36	0
bin	-0.34	0
bin	-0.32	0
bin	-0.3	0
bin	-0.28	0
bin	-0.26	0
bin	-0.24	0
bin	-0.22	0
bin	-0.2	0
bin	-0.18	0
bin	-0.16	0
bin	-0.14	0
bin	-0.12	0
bin	-0.1	0
bin	-0.08	0
bin	-0.06	0
bin	-0.04	0
bin	-0.02	0
bin	0	979
bin	0.02	0
bin	0.04	0
bin	0.06	0
bin	0.08	0
bin	0.1	0
bin	0.12	0
bin	0.14	0
bin	0.16	0
bin	0.18	0
bin	0.2	0
bin	0.22	0
bin	0.24	0
bin	0.26	0
bin	0.28	0
bin	0.3	0
bin	0.32	0
bin	0.34	0
bin	0.36	0
bin	0.38	0
bin	0.4	0
bin	0.42	0
bin	0.44	0
bin	0.46	0
bin	0.48	0
bin	0.5	0
scalar SingleCell.router3.ppp[0].ppp.queue queueLength:max 1
attr interpolationmode sample-hold
attr source "count(packetPushed) - count(packetPopped) - count(packetRemoved) - count(packetDropped)"
attr title "queue length, max"
scalar SingleCell.router3.ppp[0].ppp.queue queueLength:timeavg 1.1272275220508e-08
attr interpolationmode sample-hold
attr source "count(packetPushed) - count(packetPopped) - count(packetRemoved) - count(packetDropped)"
attr title "queue length, timeavg"
scalar SingleCell.router3.ppp[0].ppp.queue packetPushed:count 979
attr interpolationmode none
attr title "packet pushed, count"
scalar SingleCell.router3.ppp[0].ppp.queue packetPushed:sum(packetBytes) 118695
attr interpolationmode none
attr title "packet pushed, sum(packetBytes)"
scalar SingleCell.router3.ppp[0].ppp.queue packetDropQueueOverflow:count 0
attr interpolationmode none
attr source packetDropReasonIsQueueOverflow(packetDropped)
attr title "packet drops: queue overflow, count"
scalar SingleCell.router3.ppp[0].ppp.queue packetDropQueueOverflow:sum(packetBytes) 0
attr interpolationmode none
attr source packetDropReasonIsQueueOverflow(packetDropped)
attr title "packet drops: queue overflow, sum(packetBytes)"
scalar SingleCell.router3.ppp[0].ppp.queue packetRemoved:count 0
attr interpolationmode none
attr title "packets removed, count"
scalar SingleCell.router3.ppp[0].ppp.queue packetRemoved:sum(packetBytes) 0
attr interpolationmode none
attr title "packets removed, sum(packetBytes)"
scalar SingleCell.router3.ppp[0].ppp transmissionState:timeavg 3.3479466666667e-06
attr interpolationmode sample-hold
attr source transmissionStateChanged
attr title "tx state, timeavg"
scalar SingleCell.router3.ppp[0].ppp rxPkOk:count 1022
attr interpolationmode none
attr source rxPkOk
attr title "packets received OK, count"
scalar SingleCell.router3.ppp[0].ppp rxPkOk:sum(packetBytes) 540808
attr interpolationmode none
attr source rxPkOk
attr title "packets received OK, sum(packetBytes)"
scalar SingleCell.router3.ppp[0].ppp txPk:count 979
attr interpolationmode none
attr source packetSentToLower
attr title "packets transmitted, count"
scalar SingleCell.router3.ppp[0].ppp txPk:sum(packetBytes) 125548
attr interpolationmode none
attr source packetSentToLower
attr title "packets transmitted, sum(packetBytes)"
scalar SingleCell.router3.ppp[0].ppp rcvdPkFromHl:count 979
attr interpolationmode none
attr source packetReceivedFromUpper
attr title "packets received from higher layer, count"
scalar SingleCell.router3.ppp[0].ppp rcvdPkFromHl:sum(packetBytes) 118695
attr interpolationmode none
attr source packetReceivedFromUpper
attr title "packets received from higher layer, sum(packetBytes)"
scalar SingleCell.router3.ppp[0].ppp passedUpPk:count 1022
attr interpolationmode none
attr source packetSentToUpper
attr title "packets passed to higher layer, count"
scalar SingleCell.router3.ppp[0].ppp passedUpPk:sum(packetBytes) 533654
attr interpolationmode none
attr source packetSentToUpper
attr title "packets passed to higher layer, sum(packetBytes)"
scalar SingleCell.router3.ppp[0].ppp packetDropIncorrectlyReceived:count 0
attr interpolationmode none
attr source packetDropReasonIsIncorrectlyReceived(packetDropped)
attr title "packet drop: incorrectly received, count"
scalar SingleCell.router3.ppp[0].ppp packetDropIncorrectlyReceived:sum(packetBytes) 0
attr interpolationmode none
attr source packetDropReasonIsIncorrectlyReceived(packetDropped)
attr title "packet drop: incorrectly received, sum(packetBytes)"
scalar SingleCell.router3.ppp[0].ppp packetDropInterfaceDown:count 0
attr interpolationmode none
attr source packetDropReasonIsInterfaceDown(packetDropped)
attr title "packet drop: interface down, count"
scalar SingleCell.router3.ppp[0].ppp packetDropInterfaceDown:sum(packetBytes) 0
attr interpolationmode none
attr source packetDropReasonIsInterfaceDown(packetDropped)
attr title "packet drop: interface down, sum(packetBytes)"
scalar SingleCell.router3.ppp[1].ppp.queue packetPopped:count 1022
attr interpolationmode none
attr title "packet popped, count"
scalar SingleCell.router3.ppp[1].ppp.queue packetPopped:sum(packetBytes) 533654
attr interpolationmode none
attr title "packet popped, sum(packetBytes)"
statistic SingleCell.router3.ppp[1].ppp.queue queueingTime:histogram
field count 1022
field mean 6.3624266144814e-09
field stddev 4.8212950710789e-08
field min 0
field max 4.288e-07
field sum 6.5024e-06
field sqrsum 2.41467392e-12
attr interpolationmode none
attr source queueingTime(packetPopped)
attr title "queueing times, histogram"
attr unit s
bin	-inf	0
bin	0	1004
bin	1e-08	0
bin	2e-08	0
bin	3e-08	0
bin	4e-08	0
bin	5e-08	0
bin	6e-08	0
bin	7e-08	0
bin	8e-08	0
bin	9e-08	0
bin	1e-07	0
bin	1.1e-07	0
bin	1.2e-07	0
bin	1.3e-07	0
bin	1.4e-07	0
bin	1.5e-07	0
bin	1.6e-07	0
bin	1.7e-07	0
bin	1.8e-07	0
bin	1.9e-07	0
bin	2e-07	0
bin	2.1e-07	0
bin	2.2e-07	0
bin	2.3e-07	0
bin	2.4e-07	0
bin	2.5e-07	0
bin	2.6e-07	0
bin	2.7e-07	0
bin	2.8e-07	0
bin	2.9e-07	0
bin	3e-07	10
bin	3.1e-07	0
bin	3.2e-07	0
bin	3.3e-07	0
bin	3.4e-07	0
bin	3.5e-07	0
bin	3.6e-07	0
bin	3.7e-07	0
bin	3.8e-07	0
bin	3.9e-07	0
bin	4e-07	0
bin	4.1e-07	0
bin	4.2e-07	8
bin	4.3e-07	0
bin	4.4e-07	0
bin	4.5e-07	0
bin	4.6e-07	0
bin	4.7e-07	0
bin	4.8e-07	0
bin	4.9e-07	0
bin	5e-07	0
bin	5.1e-07	0
bin	5.2e-07	0
bin	5.3e-07	0
bin	5.4e-07	0
scalar SingleCell.router3.ppp[1].ppp.queue queueLength:max 3
attr interpolationmode sample-hold
attr source "count(packetPushed) - count(packetPopped) - count(packetRemoved) - count(packetDropped)"
attr title "queue length, max"
scalar SingleCell.router3.ppp[1].ppp.queue queueLength:timeavg 2.243599502012e-07
attr interpolationmode sample-hold
attr source "count(packetPushed) - count(packetPopped) - count(packetRemoved) - count(packetDropped)"
attr title "queue length, timeavg"
scalar SingleCell.router3.ppp[1].ppp.queue packetPushed:count 1022
attr interpolationmode none
attr title "packet pushed, count"
scalar SingleCell.router3.ppp[1].ppp.queue packetPushed:sum(packetBytes) 533654
attr interpolationmode none
attr title "packet pushed, sum(packetBytes)"
scalar SingleCell.router3.ppp[1].ppp.queue packetDropQueueOverflow:count 0
attr interpolationmode none
attr source packetDropReasonIsQueueOverflow(packetDropped)
attr title "packet drops: queue overflow, count"
scalar SingleCell.router3.ppp[1].ppp.queue packetDropQueueOverflow:sum(packetBytes) 0
attr interpolationmode none
attr source packetDropReasonIsQueueOverflow(packetDropped)
attr title "packet drops: queue overflow, sum(packetBytes)"
scalar SingleCell.router3.ppp[1].ppp.queue packetRemoved:count 0
attr interpolationmode none
attr title "packets removed, count"
scalar SingleCell.router3.ppp[1].ppp.queue packetRemoved:sum(packetBytes) 0
attr interpolationmode none
attr title "packets removed, sum(packetBytes)"
scalar SingleCell.router3.ppp[1].ppp transmissionState:timeavg 1.4421546666667e-05
attr interpolationmode sample-hold
attr source transmissionStateChanged
attr title "tx state, timeavg"
scalar SingleCell.router3.ppp[1].ppp rxPkOk:count 979
attr interpolationmode none
attr source rxPkOk
attr title "packets received OK, count"
scalar SingleCell.router3.ppp[1].ppp rxPkOk:sum(packetBytes) 125548
attr interpolationmode none
attr source rxPkOk
attr title "packets received OK, sum(packetBytes)"
scalar SingleCell.router3.ppp[1].ppp txPk:count 1022
attr interpolationmode none
attr source packetSentToLower
attr title "packets transmitted, count"
scalar SingleCell.router3.ppp[1].ppp txPk:sum(packetBytes) 540808
attr interpolationmode none
attr source packetSentToLower
attr title "packets transmitted, sum(packetBytes)"
scalar SingleCell.router3.ppp[1].ppp rcvdPkFromHl:count 1022
attr interpolationmode none
attr source packetReceivedFromUpper
attr title "packets received from higher layer, count"
scalar SingleCell.router3.ppp[1].ppp rcvdPkFromHl:sum(packetBytes) 533654
attr interpolationmode none
attr source packetReceivedFromUpper
attr title "packets received from higher layer, sum(packetBytes)"
scalar SingleCell.router3.ppp[1].ppp passedUpPk:count 979
attr interpolationmode none
attr source packetSentToUpper
attr title "packets passed to higher layer, count"
scalar SingleCell.router3.ppp[1].ppp passedUpPk:sum(packetBytes) 118695
attr interpolationmode none
attr source packetSentToUpper
attr title "packets passed to higher layer, sum(packetBytes)"
scalar SingleCell.router3.ppp[1].ppp packetDropIncorrectlyReceived:count 0
attr interpolationmode none
attr source packetDropReasonIsIncorrectlyReceived(packetDropped)
attr title "packet drop: incorrectly received, count"
scalar SingleCell.router3.ppp[1].ppp packetDropIncorrectlyReceived:sum(packetBytes) 0
attr interpolationmode none
attr source packetDropReasonIsIncorrectlyReceived(packetDropped)
attr title "packet drop: incorrectly received, sum(packetBytes)"
scalar SingleCell.router3.ppp[1].ppp packetDropInterfaceDown:count 0
attr interpolationmode none
attr source packetDropReasonIsInterfaceDown(packetDropped)
attr title "packet drop: interface down, count"
scalar SingleCell.router3.ppp[1].ppp packetDropInterfaceDown:sum(packetBytes) 0
attr interpolationmode none
attr source packetDropReasonIsInterfaceDown(packetDropped)
attr title "packet drop: interface down, sum(packetBytes)"
scalar SingleCell.router3.ipv4.ip packetDropAddressResolutionFailed:count 0
attr interpolationmode none
attr source packetDropReasonIsAddressResolutionFailed(packetDropped)
attr title "packet drop: address resolution failed, count"
scalar SingleCell.router3.ipv4.ip packetDropAddressResolutionFailed:sum(packetBytes) 0
attr interpolationmode none
attr source packetDropReasonIsAddressResolutionFailed(packetDropped)
attr title "packet drop: address resolution failed, sum(packetBytes)"
scalar SingleCell.router3.ipv4.ip packetDropHopLimitReached:count 0
attr interpolationmode none
attr source packetDropReasonIsHopLimitReached(packetDropped)
attr title "packet drop: hop limit reached, count"
scalar SingleCell.router3.ipv4.ip packetDropHopLimitReached:sum(packetBytes) 0
attr interpolationmode none
attr source packetDropReasonIsHopLimitReached(packetDropped)
attr title "packet drop: hop limit reached, sum(packetBytes)"
scalar SingleCell.router3.ipv4.ip packetDropForwardingDisabled:count 0
attr interpolationmode none
attr source packetDropReasonIsForwardingDisabled(packetDropped)
attr title "packet drop: forwarding disabled, count"
scalar SingleCell.router3.ipv4.ip packetDropForwardingDisabled:sum(packetBytes) 0
attr interpolationmode none
attr source packetDropReasonIsForwardingDisabled(packetDropped)
attr title "packet drop: forwarding disabled, sum(packetBytes)"
scalar SingleCell.router3.ipv4.ip packetDropNoInterfaceFound:count 0
attr interpolationmode none
attr source packetDropReasonIsNoInterfaceFound(packetDropped)
attr title "packet drop: no interface found, count"
scalar SingleCell.router3.ipv4.ip packetDropNoInterfaceFound:sum(packetBytes) 0
attr interpolationmode none
attr source packetDropReasonIsNoInterfaceFound(packetDropped)
attr title "packet drop: no interface found, sum(packetBytes)"
scalar SingleCell.router3.ipv4.ip packetDropNoRouteFound:count 0
attr interpolationmode none
attr source packetDropReasonIsNoRouteFound(packetDropped)
attr title "packet drop: no route found, count"
scalar SingleCell.router3.ipv4.ip packetDropNoRouteFound:sum(packetBytes) 0
attr interpolationmode none
attr source packetDropReasonIsNoRouteFound(packetDropped)
attr title "packet drop: no route found, sum(packetBytes)"
scalar SingleCell.router3.ipv4.ip packetDropUndefined:count 0
attr interpolationmode none
attr source packetDropReasonIsUndefined(packetDropped)
attr title "packet drop: undefined, count"
scalar SingleCell.router3.ipv4.ip packetDropUndefined:sum(packetBytes) 0
attr interpolationmode none
attr source packetDropReasonIsUndefined(packetDropped)
attr title "packet drop: undefined, sum(packetBytes)"
scalar SingleCell.pgw.lo[0].lo rcvdPkFromHl:count 0
attr interpolationmode none
attr source packetReceivedFromUpper
attr title "packets received from higher layer, count"
scalar SingleCell.pgw.lo[0].lo rcvdPkFromHl:sum(packetBytes) 0
attr interpolationmode none
attr source packetReceivedFromUpper
attr title "packets received from higher layer, sum(packetBytes)"
scalar SingleCell.pgw.lo[0].lo passedUpPk:count 0
attr interpolationmode none
attr source packetSentToUpper
attr title "packets passed to higher layer, count"
scalar SingleCell.pgw.lo[0].lo passedUpPk:sum(packetBytes) 0
attr interpolationmode none
attr source packetSentToUpper
attr title "packets passed to higher layer, sum(packetBytes)"
scalar SingleCell.pgw.ppp[0].ppp.queue packetPopped:count 1853
attr interpolationmode none
attr title "packet popped, count"
scalar SingleCell.pgw.ppp[0].ppp.queue packetPopped:sum(packetBytes) 279053
attr interpolationmode none
attr title "packet popped, sum(packetBytes)"
statistic SingleCell.pgw.ppp[0].ppp.queue queueingTime:histogram
field count 1853
field mean 2.4805612520237e-08
field stddev 7.575005143534e-08
field min 0
field max 5.472e-07
field sum 4.59648e-05
field sqrsum 1.17670912e-11
attr interpolationmode none
attr source queueingTime(packetPopped)
attr title "queueing times, histogram"
attr unit s
bin	-inf	0
bin	0	1561
bin	1e-08	0
bin	2e-08	0
bin	3e-08	0
bin	4e-08	0
bin	5e-08	0
bin	6e-08	108
bin	7e-08	0
bin	8e-08	0
bin	9e-08	0
bin	1e-07	0
bin	1.1e-07	0
bin	1.2e-07	90
bin	1.3e-07	0
bin	1.4e-07	0
bin	1.5e-07	0
bin	1.6e-07	0
bin	1.7e-07	0
bin	1.8e-07	35
bin	1.9e-07	0
bin	2e-07	0
bin	2.1e-07	0
bin	2.2e-07	0
bin	2.3e-07	0
bin	2.4e-07	16
bin	2.5e-07	0
bin	2.6e-07	0
bin	2.7e-07	0
bin	2.8e-07	0
bin	2.9e-07	0
bin	3e-07	10
bin	3.1e-07	0
bin	3.2e-07	0
bin	3.3e-07	0
bin	3.4e-07	0
bin	3.5e-07	0
bin	3.6e-07	4
bin	3.7e-07	0
bin	3.8e-07	0
bin	3.9e-07	0
bin	4e-07	0
bin	4.1e-07	0
bin	4.2e-07	17
bin	4.3e-07	0
bin	4.4e-07	0
bin	4.5e-07	0
bin	4.6e-07	0
bin	4.7e-07	0
bin	4.8e-07	4
bin	4.9e-07	0
bin	5e-07	0
bin	5.1e-07	0
bin	5.2e-07	0
bin	5.3e-07	0
bin	5.4e-07	8
bin	5.5e-07	0
scalar SingleCell.pgw.ppp[0].ppp.queue queueLength:max 9
attr interpolationmode sample-hold
attr source "count(packetPushed) - count(packetPopped) - count(packetRemoved) - count(packetDropped)"
attr title "queue length, max"
scalar SingleCell.pgw.ppp[0].ppp.queue queueLength:timeavg 1.5874015873024e-06
attr interpolationmode sample-hold
attr source "count(packetPushed) - count(packetPopped) - count(packetRemoved) - count(packetDropped)"
attr title "queue length, timeavg"
scalar SingleCell.pgw.ppp[0].ppp.queue packetPushed:count 1853
attr interpolationmode none
attr title "packet pushed, count"
scalar SingleCell.pgw.ppp[0].ppp.queue packetPushed:sum(packetBytes) 279053
attr interpolationmode none
attr title "packet pushed, sum(packetBytes)"
scalar SingleCell.pgw.ppp[0].ppp.queue packetDropQueueOverflow:count 0
attr interpolationmode none
attr source packetDropReasonIsQueueOverflow(packetDropped)
attr title "packet drops: queue overflow, count"
scalar SingleCell.pgw.ppp[0].ppp.queue packetDropQueueOverflow:sum(packetBytes) 0
attr interpolationmode none
attr source packetDropReasonIsQueueOverflow(packetDropped)
attr title "packet drops: queue overflow, sum(packetBytes)"
scalar SingleCell.pgw.ppp[0].ppp.queue packetRemoved:count 0
attr interpolationmode none
attr title "packets removed, count"
scalar SingleCell.pgw.ppp[0].ppp.queue packetRemoved:sum(packetBytes) 0
attr interpolationmode none
attr title "packets removed, sum(packetBytes)"
scalar SingleCell.pgw.ppp[0].ppp transmissionState:timeavg 7.7873066666665e-06
attr interpolationmode sample-hold
attr source transmissionStateChanged
attr title "tx state, timeavg"
scalar SingleCell.pgw.ppp[0].ppp rxPkOk:count 1901
attr interpolationmode none
attr source rxPkOk
attr title "packets received OK, count"
scalar SingleCell.pgw.ppp[0].ppp rxPkOk:sum(packetBytes) 957664
attr interpolationmode none
attr source rxPkOk
attr title "packets received OK, sum(packetBytes)"
scalar SingleCell.pgw.ppp[0].ppp txPk:count 1853
attr interpolationmode none
attr source packetSentToLower
attr title "packets transmitted, count"
scalar SingleCell.pgw.ppp[0].ppp txPk:sum(packetBytes) 292024
attr interpolationmode none
attr source packetSentToLower
attr title "packets transmitted, sum(packetBytes)"
scalar SingleCell.pgw.ppp[0].ppp rcvdPkFromHl:count 1853
attr interpolationmode none
attr source packetReceivedFromUpper
attr title "packets received from higher layer, count"
scalar SingleCell.pgw.ppp[0].ppp rcvdPkFromHl:sum(packetBytes) 279053
attr interpolationmode none
attr source packetReceivedFromUpper
attr title "packets received from higher layer, sum(packetBytes)"
scalar SingleCell.pgw.ppp[0].ppp passedUpPk:count 1901
attr interpolationmode none
attr source packetSentToUpper
attr title "packets passed to higher layer, count"
scalar SingleCell.pgw.ppp[0].ppp passedUpPk:sum(packetBytes) 944357
attr interpolationmode none
attr source packetSentToUpper
attr title "packets passed to higher layer, sum(packetBytes)"
scalar SingleCell.pgw.ppp[0].ppp packetDropIncorrectlyReceived:count 0
attr interpolationmode none
attr source packetDropReasonIsIncorrectlyReceived(packetDropped)
attr title "packet drop: incorrectly received, count"
scalar SingleCell.pgw.ppp[0].ppp packetDropIncorrectlyReceived:sum(packetBytes) 0
attr interpolationmode none
attr source packetDropReasonIsIncorrectlyReceived(packetDropped)
attr title "packet drop: incorrectly received, sum(packetBytes)"
scalar SingleCell.pgw.ppp[0].ppp packetDropInterfaceDown:count 0
attr interpolationmode none
attr source packetDropReasonIsInterfaceDown(packetDropped)
attr title "packet drop: interface down, count"
scalar SingleCell.pgw.ppp[0].ppp packetDropInterfaceDown:sum(packetBytes) 0
attr interpolationmode none
attr source packetDropReasonIsInterfaceDown(packetDropped)
attr title "packet drop: interface down, sum(packetBytes)"
scalar SingleCell.pgw.ppp[1].ppp.queue packetPopped:count 99
attr interpolationmode none
attr title "packet popped, count"
scalar SingleCell.pgw.ppp[1].ppp.queue packetPopped:sum(packetBytes) 56839
attr interpolationmode none
attr title "packet popped, sum(packetBytes)"
statistic SingleCell.pgw.ppp[1].ppp.queue queueingTime:histogram
field count 99
field mean 3.1030303030303e-09
field stddev 3.0874761684763e-08
field min 0
field max 3.072e-07
field sum 3.072e-07
field sqrsum 9.437184e-14
attr interpolationmode none
attr source queueingTime(packetPopped)
attr title "queueing times, histogram"
attr unit s
bin	-inf	0
bin	-0.5	0
bin	-0.48	0
bin	-0.46	0
bin	-0.44	0
bin	-0.42	0
bin	-0.4	0
bin	-0.38	0
bin	-0.36	0
bin	-0.34	0
bin	-0.32	0
bin	-0.3	0
bin	-0.28	0
bin	-0.26	0
bin	-0.24	0
bin	-0.22	0
bin	-0.2	0
bin	-0.18	0
bin	-0.16	0
bin	-0.14	0
bin	-0.12	0
bin	-0.1	0
bin	-0.08	0
bin	-0.06	0
bin	-0.04	0
bin	-0.02	0
bin	0	99
bin	0.02	0
bin	0.04	0
bin	0.06	0
bin	0.08	0
bin	0.1	0
bin	0.12	0
bin	0.14	0
bin	0.16	0
bin	0.18	0
bin	0.2	0
bin	0.22	0
bin	0.24	0
bin	0.26	0
bin	0.28	0
bin	0.3	0
bin	0.32	0
bin	0.34	0
[...]
attr source packetSent
attr title "packets sent, count"
scalar SingleCell.s.app[16] packetSent:sum(packetBytes) 50000
attr interpolationmode none
attr source packetSent
attr title "packets sent, sum(packetBytes)"
scalar SingleCell.s.app[17] bytesRcvd 0
scalar SingleCell.s.app[17] bytesSent 50000
scalar SingleCell.s.app[17] packetReceived:count 0
attr interpolationmode none
attr source packetReceived
attr title "packets received, count"
scalar SingleCell.s.app[17] packetReceived:sum(packetBytes) 0
attr interpolationmode none
attr source packetReceived
attr title "packets received, sum(packetBytes)"
statistic SingleCell.s.app[17] endToEndDelay:histogram
field count 0
field mean -nan
field stddev nan
field min nan
field max nan
field sum 0
field sqrsum 0
attr interpolationmode none
attr source dataAge(packetReceived)
attr title "end-to-end delay, histogram"
attr unit s
bin	-inf	0
bin	0	0
bin	1	0
statistic SingleCell.s.app[17] endToEndDelay:weightedHistogram
field count 0
field mean -nan
field stddev nan
field min nan
field max nan
field weights 0
field weightedSum 0
field sqrSumWeights 0
field weightedSqrSum 0
attr interpolationmode none
attr source dataAge(packetReceived)
attr title "end-to-end delay, weightedHistogram"
attr unit s
bin	-inf	0
bin	0	0
bin	1	0
scalar SingleCell.s.app[17] packetSent:count 1
attr interpolationmode none
attr source packetSent
attr title "packets sent, count"
scalar SingleCell.s.app[17] packetSent:sum(packetBytes) 50000
attr interpolationmode none
attr source packetSent
attr title "packets sent, sum(packetBytes)"
scalar SingleCell.s.app[18] bytesRcvd 0
scalar SingleCell.s.app[18] bytesSent 0
scalar SingleCell.s.app[18] packetReceived:count 0
attr interpolationmode none
attr source packetReceived
attr title "packets received, count"
scalar SingleCell.s.app[18] packetReceived:sum(packetBytes) 0
attr interpolationmode none
attr source packetReceived
attr title "packets received, sum(packetBytes)"
statistic SingleCell.s.app[18] endToEndDelay:histogram
field count 0
field mean -nan
field stddev nan
field min nan
field max nan
field sum 0
field sqrsum 0
attr interpolationmode none
attr source dataAge(packetReceived)
attr title "end-to-end delay, histogram"
attr unit s
bin	-inf	0
bin	0	0
bin	1	0
statistic SingleCell.s.app[18] endToEndDelay:weightedHistogram
field count 0
field mean -nan
field stddev nan
field min nan
field max nan
field weights 0
field weightedSum 0
field sqrSumWeights 0
field weightedSqrSum 0
attr interpolationmode none
attr source dataAge(packetReceived)
attr title "end-to-end delay, weightedHistogram"
attr unit s
bin	-inf	0
bin	0	0
bin	1	0
scalar SingleCell.s.app[18] packetSent:count 0
attr interpolationmode none
attr source packetSent
attr title "packets sent, count"
scalar SingleCell.s.app[18] packetSent:sum(packetBytes) 0
attr interpolationmode none
attr source packetSent
attr title "packets sent, sum(packetBytes)"
scalar SingleCell.s.app[19] bytesRcvd 0
scalar SingleCell.s.app[19] bytesSent 50000
scalar SingleCell.s.app[19] packetReceived:count 0
attr interpolationmode none
attr source packetReceived
attr title "packets received, count"
scalar SingleCell.s.app[19] packetReceived:sum(packetBytes) 0
attr interpolationmode none
attr source packetReceived
attr title "packets received, sum(packetBytes)"
statistic SingleCell.s.app[19] endToEndDelay:histogram
field count 0
field mean -nan
field stddev nan
field min nan
field max nan
field sum 0
field sqrsum 0
attr interpolationmode none
attr source dataAge(packetReceived)
attr title "end-to-end delay, histogram"
attr unit s
bin	-inf	0
bin	0	0
bin	1	0
statistic SingleCell.s.app[19] endToEndDelay:weightedHistogram
field count 0
field mean -nan
field stddev nan
field min nan
field max nan
field weights 0
field weightedSum 0
field sqrSumWeights 0
field weightedSqrSum 0
attr interpolationmode none
attr source dataAge(packetReceived)
attr title "end-to-end delay, weightedHistogram"
attr unit s
bin	-inf	0
bin	0	0
bin	1	0
scalar SingleCell.s.app[19] packetSent:count 1
attr interpolationmode none
attr source packetSent
attr title "packets sent, count"
scalar SingleCell.s.app[19] packetSent:sum(packetBytes) 50000
attr interpolationmode none
attr source packetSent
attr title "packets sent, sum(packetBytes)"
scalar SingleCell.s.app[20] bytesRcvd 0
scalar SingleCell.s.app[20] bytesSent 50000
scalar SingleCell.s.app[20] packetReceived:count 0
attr interpolationmode none
attr source packetReceived
attr title "packets received, count"
scalar SingleCell.s.app[20] packetReceived:sum(packetBytes) 0
attr interpolationmode none
attr source packetReceived
attr title "packets received, sum(packetBytes)"
statistic SingleCell.s.app[20] endToEndDelay:histogram
field count 0
field mean -nan
field stddev nan
field min nan
field max nan
field sum 0
field sqrsum 0
attr interpolationmode none
attr source dataAge(packetReceived)
attr title "end-to-end delay, histogram"
attr unit s
bin	-inf	0
bin	0	0
bin	1	0
statistic SingleCell.s.app[20] endToEndDelay:weightedHistogram
field count 0
field mean -nan
field stddev nan
field min nan
field max nan
field weights 0
field weightedSum 0
field sqrSumWeights 0
field weightedSqrSum 0
attr interpolationmode none
attr source dataAge(packetReceived)
attr title "end-to-end delay, weightedHistogram"
attr unit s
bin	-inf	0
bin	0	0
bin	1	0
scalar SingleCell.s.app[20] packetSent:count 1
attr interpolationmode none
attr source packetSent
attr title "packets sent, count"
scalar SingleCell.s.app[20] packetSent:sum(packetBytes) 50000
attr interpolationmode none
attr source packetSent
attr title "packets sent, sum(packetBytes)"
scalar SingleCell.s.app[21] bytesRcvd 0
scalar SingleCell.s.app[21] bytesSent 0
scalar SingleCell.s.app[21] packetReceived:count 0
attr interpolationmode none
attr source packetReceived
attr title "packets received, count"
scalar SingleCell.s.app[21] packetReceived:sum(packetBytes) 0
attr interpolationmode none
attr source packetReceived
attr title "packets received, sum(packetBytes)"
statistic SingleCell.s.app[21] endToEndDelay:histogram
field count 0
field mean -nan
field stddev nan
field min nan
field max nan
field sum 0
field sqrsum 0
attr interpolationmode none
attr source dataAge(packetReceived)
attr title "end-to-end delay, histogram"
attr unit s
bin	-inf	0
bin	0	0
bin	1	0
statistic SingleCell.s.app[21] endToEndDelay:weightedHistogram
field count 0
field mean -nan
field stddev nan
field min nan
field max nan
field weights 0
field weightedSum 0
field sqrSumWeights 0
field weightedSqrSum 0
attr interpolationmode none
attr source dataAge(packetReceived)
attr title "end-to-end delay, weightedHistogram"
attr unit s
bin	-inf	0
bin	0	0
bin	1	0
scalar SingleCell.s.app[21] packetSent:count 0
attr interpolationmode none
attr source packetSent
attr title "packets sent, count"
scalar SingleCell.s.app[21] packetSent:sum(packetBytes) 0
attr interpolationmode none
attr source packetSent
attr title "packets sent, sum(packetBytes)"
scalar SingleCell.s.app[22] bytesRcvd 0
scalar SingleCell.s.app[22] bytesSent 50000
scalar SingleCell.s.app[22] packetReceived:count 0
attr interpolationmode none
attr source packetReceived
attr title "packets received, count"
scalar SingleCell.s.app[22] packetReceived:sum(packetBytes) 0
attr interpolationmode none
attr source packetReceived
attr title "packets received, sum(packetBytes)"
statistic SingleCell.s.app[22] endToEndDelay:histogram
field count 0
field mean -nan
field stddev nan
field min nan
field max nan
field sum 0
field sqrsum 0
attr interpolationmode none
attr source dataAge(packetReceived)
attr title "end-to-end delay, histogram"
attr unit s
bin	-inf	0
bin	0	0
bin	1	0
statistic SingleCell.s.app[22] endToEndDelay:weightedHistogram
field count 0
field mean -nan
field stddev nan
field min nan
field max nan
field weights 0
field weightedSum 0
field sqrSumWeights 0
field weightedSqrSum 0
attr interpolationmode none
attr source dataAge(packetReceived)
attr title "end-to-end delay, weightedHistogram"
attr unit s
bin	-inf	0
bin	0	0
bin	1	0
scalar SingleCell.s.app[22] packetSent:count 1
attr interpolationmode none
attr source packetSent
attr title "packets sent, count"
scalar SingleCell.s.app[22] packetSent:sum(packetBytes) 50000
attr interpolationmode none
attr source packetSent
attr title "packets sent, sum(packetBytes)"
scalar SingleCell.s.app[23] bytesRcvd 0
scalar SingleCell.s.app[23] bytesSent 50000
scalar SingleCell.s.app[23] packetReceived:count 0
attr interpolationmode none
attr source packetReceived
attr title "packets received, count"
scalar SingleCell.s.app[23] packetReceived:sum(packetBytes) 0
attr interpolationmode none
attr source packetReceived
attr title "packets received, sum(packetBytes)"
statistic SingleCell.s.app[23] endToEndDelay:histogram
field count 0
field mean -nan
field stddev nan
field min nan
field max nan
field sum 0
field sqrsum 0
attr interpolationmode none
attr source dataAge(packetReceived)
attr title "end-to-end delay, histogram"
attr unit s
bin	-inf	0
bin	0	0
bin	1	0
statistic SingleCell.s.app[23] endToEndDelay:weightedHistogram
field count 0
field mean -nan
field stddev nan
field min nan
field max nan
field weights 0
field weightedSum 0
field sqrSumWeights 0
field weightedSqrSum 0
attr interpolationmode none
attr source dataAge(packetReceived)
attr title "end-to-end delay, weightedHistogram"
attr unit s
bin	-inf	0
bin	0	0
bin	1	0
scalar SingleCell.s.app[23] packetSent:count 1
attr interpolationmode none
attr source packetSent
attr title "packets sent, count"
scalar SingleCell.s.app[23] packetSent:sum(packetBytes) 50000
attr interpolationmode none
attr source packetSent
attr title "packets sent, sum(packetBytes)"
scalar SingleCell.s.app[24] bytesRcvd 0
scalar SingleCell.s.app[24] bytesSent 50000
scalar SingleCell.s.app[24] packetReceived:count 0
attr interpolationmode none
attr source packetReceived
attr title "packets received, count"
scalar SingleCell.s.app[24] packetReceived:sum(packetBytes) 0
attr interpolationmode none
attr source packetReceived
attr title "packets received, sum(packetBytes)"
statistic SingleCell.s.app[24] endToEndDelay:histogram
field count 0
field mean -nan
field stddev nan
field min nan
field max nan
field sum 0
field sqrsum 0
attr interpolationmode none
attr source dataAge(packetReceived)
attr title "end-to-end delay, histogram"
attr unit s
bin	-inf	0
bin	0	0
bin	1	0
statistic SingleCell.s.app[24] endToEndDelay:weightedHistogram
field count 0
field mean -nan
field stddev nan
field min nan
field max nan
field weights 0
field weightedSum 0
field sqrSumWeights 0
field weightedSqrSum 0
attr interpolationmode none
attr source dataAge(packetReceived)
attr title "end-to-end delay, weightedHistogram"
attr unit s
bin	-inf	0
bin	0	0
bin	1	0
scalar SingleCell.s.app[24] packetSent:count 1
attr interpolationmode none
attr source packetSent
attr title "packets sent, count"
scalar SingleCell.s.app[24] packetSent:sum(packetBytes) 50000
attr interpolationmode none
attr source packetSent
attr title "packets sent, sum(packetBytes)"
scalar SingleCell.s.app[25] bytesRcvd 0
scalar SingleCell.s.app[25] bytesSent 50000
scalar SingleCell.s.app[25] packetReceived:count 0
attr interpolationmode none
attr source packetReceived
attr title "packets received, count"
scalar SingleCell.s.app[25] packetReceived:sum(packetBytes) 0
attr interpolationmode none
attr source packetReceived
attr title "packets received, sum(packetBytes)"
statistic SingleCell.s.app[25] endToEndDelay:histogram
field count 0
field mean -nan
field stddev nan
field min nan
field max nan
field sum 0
field sqrsum 0
attr interpolationmode none
attr source dataAge(packetReceived)
attr title "end-to-end delay, histogram"
attr unit s
bin	-inf	0
bin	0	0
bin	1	0
statistic SingleCell.s.app[25] endToEndDelay:weightedHistogram
field count 0
field mean -nan
field stddev nan
field min nan
field max nan
field weights 0
field weightedSum 0
field sqrSumWeights 0
field weightedSqrSum 0
attr interpolationmode none
attr source dataAge(packetReceived)
attr title "end-to-end delay, weightedHistogram"
attr unit s
bin	-inf	0
bin	0	0
bin	1	0
scalar SingleCell.s.app[25] packetSent:count 1
attr interpolationmode none
attr source packetSent
attr title "packets sent, count"
scalar SingleCell.s.app[25] packetSent:sum(packetBytes) 50000
attr interpolationmode none
attr source packetSent
attr title "packets sent, sum(packetBytes)"
scalar SingleCell.s.app[26] bytesRcvd 0
scalar SingleCell.s.app[26] bytesSent 0
scalar SingleCell.s.app[26] packetReceived:count 0
attr interpolationmode none
attr source packetReceived
attr title "packets received, count"
scalar SingleCell.s.app[26] packetReceived:sum(packetBytes) 0
attr interpolationmode none
attr source packetReceived
attr title "packets received, sum(packetBytes)"
statistic SingleCell.s.app[26] endToEndDelay:histogram
field count 0
field mean -nan
field stddev nan
field min nan
field max nan
field sum 0
field sqrsum 0
attr interpolationmode none
attr source dataAge(packetReceived)
attr title "end-to-end delay, histogram"
attr unit s
bin	-inf	0
bin	0	0
bin	1	0
statistic SingleCell.s.app[26] endToEndDelay:weightedHistogram
field count 0
field mean -nan
field stddev nan
field min nan
field max nan
field weights 0
field weightedSum 0
field sqrSumWeights 0
field weightedSqrSum 0
attr interpolationmode none
attr source dataAge(packetReceived)
attr title "end-to-end delay, weightedHistogram"
attr unit s
bin	-inf	0
bin	0	0
bin	1	0
scalar SingleCell.s.app[26] packetSent:count 0
attr interpolationmode none
attr source packetSent
attr title "packets sent, count"
scalar SingleCell.s.app[26] packetSent:sum(packetBytes) 0
attr interpolationmode none
attr source packetSent
attr title "packets sent, sum(packetBytes)"
scalar SingleCell.s.app[27] bytesRcvd 0
scalar SingleCell.s.app[27] bytesSent 50000
scalar SingleCell.s.app[27] packetReceived:count 0
attr interpolationmode none
attr source packetReceived
attr title "packets received, count"
scalar SingleCell.s.app[27] packetReceived:sum(packetBytes) 0
attr interpolationmode none
attr source packetReceived
attr title "packets received, sum(packetBytes)"
statistic SingleCell.s.app[27] endToEndDelay:histogram
field count 0
field mean -nan
field stddev nan
field min nan
field max nan
field sum 0
field sqrsum 0
attr interpolationmode none
attr source dataAge(packetReceived)
attr title "end-to-end delay, histogram"
attr unit s
bin	-inf	0
bin	0	0
bin	1	0
statistic SingleCell.s.app[27] endToEndDelay:weightedHistogram
field count 0
field mean -nan
field stddev nan
field min nan
field max nan
field weights 0
field weightedSum 0
field sqrSumWeights 0
field weightedSqrSum 0
attr interpolationmode none
attr source dataAge(packetReceived)
attr title "end-to-end delay, weightedHistogram"
attr unit s
bin	-inf	0
bin	0	0
bin	1	0
scalar SingleCell.s.app[27] packetSent:count 1
attr interpolationmode none
attr source packetSent
attr title "packets sent, count"
scalar SingleCell.s.app[27] packetSent:sum(packetBytes) 50000
attr interpolationmode none
attr source packetSent
attr title "packets sent, sum(packetBytes)"
scalar SingleCell.s.app[28] bytesRcvd 0
scalar SingleCell.s.app[28] bytesSent 50000
scalar SingleCell.s.app[28] packetReceived:count 0
attr interpolationmode none
attr source packetReceived
attr title "packets received, count"
scalar SingleCell.s.app[28] packetReceived:sum(packetBytes) 0
attr interpolationmode none
attr source packetReceived
attr title "packets received, sum(packetBytes)"
statistic SingleCell.s.app[28] endToEndDelay:histogram
field count 0
field mean -nan
field stddev nan
field min nan
field max nan
field sum 0
field sqrsum 0
attr interpolationmode none
attr source dataAge(packetReceived)
attr title "end-to-end delay, histogram"
attr unit s
bin	-inf	0
bin	0	0
bin	1	0
statistic SingleCell.s.app[28] endToEndDelay:weightedHistogram
field count 0
field mean -nan
field stddev nan
field min nan
field max nan
field weights 0
field weightedSum 0
field sqrSumWeights 0
field weightedSqrSum 0
attr interpolationmode none
attr source dataAge(packetReceived)
attr title "end-to-end delay, weightedHistogram"
attr unit s
bin	-inf	0
bin	0	0
bin	1	0
scalar SingleCell.s.app[28] packetSent:count 1
attr interpolationmode none
attr source packetSent
attr title "packets sent, count"
scalar SingleCell.s.app[28] packetSent:sum(packetBytes) 50000
attr interpolationmode none
attr source packetSent
attr title "packets sent, sum(packetBytes)"
scalar SingleCell.s.app[29] bytesRcvd 0
scalar SingleCell.s.app[29] bytesSent 50000
scalar SingleCell.s.app[29] packetReceived:count 0
attr interpolationmode none
attr source packetReceived
attr title "packets received, count"
scalar SingleCell.s.app[29] packetReceived:sum(packetBytes) 0
attr interpolationmode none
attr source packetReceived
attr title "packets received, sum(packetBytes)"
statistic SingleCell.s.app[29] endToEndDelay:histogram
field count 0
field mean -nan
field stddev nan
field min nan
field max nan
field sum 0
field sqrsum 0
attr interpolationmode none
attr source dataAge(packetReceived)
attr title "end-to-end delay, histogram"
attr unit s
bin	-inf	0
bin	0	0
bin	1	0
statistic SingleCell.s.app[29] endToEndDelay:weightedHistogram
field count 0
field mean -nan
field stddev nan
field min nan
field max nan
field weights 0
field weightedSum 0
field sqrSumWeights 0
field weightedSqrSum 0
attr interpolationmode none
attr source dataAge(packetReceived)
attr title "end-to-end delay, weightedHistogram"
attr unit s
bin	-inf	0
bin	0	0
bin	1	0
scalar SingleCell.s.app[29] packetSent:count 1
attr interpolationmode none
attr source packetSent
attr title "packets sent, count"
scalar SingleCell.s.app[29] packetSent:sum(packetBytes) 50000
attr interpolationmode none
attr source packetSent
attr title "packets sent, sum(packetBytes)"
scalar SingleCell.s.app[30].thread_20 packetReceived:count 1
attr interpolationmode none
attr source packetReceived
attr title "packets received, count"
scalar SingleCell.s.app[30].thread_20 packetReceived:sum(packetBytes) 536
attr interpolationmode none
attr source packetReceived
attr title "packets received, sum(packetBytes)"
statistic SingleCell.s.app[30].thread_20 endToEndDelay:histogram
field count 1
field mean 0.037
field stddev -nan
field min 0.037
field max 0.037
field sum 0.037
field sqrsum 0.001369
attr interpolationmode none
attr source dataAge(packetReceived)
attr title "end-to-end delay, histogram"
attr unit s
bin	-inf	0
bin	0	0
bin	0.01	0
bin	0.02	0
bin	0.03	1
bin	0.04	0
bin	0.05	0
bin	0.06	0
bin	0.07	0
bin	0.08	0
bin	0.09	0
bin	0.1	0
bin	0.11	0
bin	0.12	0
bin	0.13	0
bin	0.14	0
bin	0.15	0
bin	0.16	0
bin	0.17	0
bin	0.18	0
bin	0.19	0
bin	0.2	0
bin	0.21	0
bin	0.22	0
bin	0.23	0
bin	0.24	0
bin	0.25	0
bin	0.26	0
bin	0.27	0
bin	0.28	0
bin	0.29	0
bin	0.3	0
bin	0.31	0
bin	0.32	0
bin	0.33	0
bin	0.34	0
bin	0.35	0
bin	0.36	0
bin	0.37	0
bin	0.38	0
bin	0.39	0
bin	0.4	0
bin	0.41	0
bin	0.42	0
bin	0.43	0
bin	0.44	0
bin	0.45	0
bin	0.46	0
bin	0.47	0
bin	0.48	0
bin	0.49	0
bin	0.5	0
bin	0.51	0
bin	0.52	0
bin	0.53	0
bin	0.54	0
statistic SingleCell.s.app[30].thread_20 endToEndDelay:weightedHistogram
field count 1
field mean 0.037
field stddev 0
field min 0.037
field max 0.037
field weights 4288
field weightedSum 158.656
field sqrSumWeights 18386944
field weightedSqrSum 5.870272
attr interpolationmode none
attr source dataAge(packetReceived)
attr title "end-to-end delay, weightedHistogram"
attr unit s
bin	-inf	0
bin	0	0
bin	0.01	0
bin	0.02	0
bin	0.03	4288
bin	0.04	0
bin	0.05	0
bin	0.06	0
bin	0.07	0
bin	0.08	0
bin	0.09	0
bin	0.1	0
bin	0.11	0
bin	0.12	0
bin	0.13	0
bin	0.14	0
bin	0.15	0
bin	0.16	0
bin	0.17	0
bin	0.18	0
bin	0.19	0
bin	0.2	0
bin	0.21	0
bin	0.22	0
bin	0.23	0
bin	0.24	0
bin	0.25	0
bin	0.26	0
bin	0.27	0
bin	0.28	0
bin	0.29	0
bin	0.3	0
bin	0.31	0
bin	0.32	0
bin	0.33	0
bin	0.34	0
bin	0.35	0
bin	0.36	0
bin	0.37	0
bin	0.38	0
bin	0.39	0
bin	0.4	0
bin	0.41	0
bin	0.42	0
bin	0.43	0
bin	0.44	0
bin	0.45	0
bin	0.46	0
bin	0.47	0
bin	0.48	0
bin	0.49	0
bin	0.5	0
bin	0.51	0
bin	0.52	0
bin	0.53	0
bin	0.54	0
