version 2
run General-0-20221227-14:01:30-22738
attr configname General
attr datetime 20221227-14:01:30
attr experiment General
attr inifile omnetpp.ini
attr iterationvars "$numClientINI=10, $TrainingDeadline=16s, $modelSize=50000B"
attr iterationvarsf numClientINI=10,TrainingDeadline=16s,modelSize=50000B-
attr measurement "$numClientINI=10, $TrainingDeadline=16s, $modelSize=50000B"
attr network SingleCell
attr processid 22738
attr repetition 0
attr replication #0
attr resultdir results
attr runnumber 0
attr seedset 0
itervar TrainingDeadline 16s
itervar modelSize 50000B
itervar numClientINI 10
param **.routingRecorder.enabled false
param *.configurator.config "xmldoc(\"demo.xml\")"
param **.round 0
param **.mobility.constraintAreaMinZ 0m
param **.mobility.constraintAreaMaxZ 0m
param *.s.mobility.initFromDisplayString false
param *.sumomap.map "\"osm.sumocfg\""
param **.numRbDl 200
param **.numRbUl 200
param **.binder.numBands 200
param **.ueTxPower 26
param **.eNodeBTxPower 40
param **.V[*].macCellId 1
param **.V[*].masterId 1
param **.s.macCellId 1
param **.s.masterId 1
param *.eNB.mobility.initialX 500m
param *.eNB.mobility.initialY 500m
param *.eNB.mobility.typename "\"StationaryMobility\""
param *.s.mobilityType "\"StationaryMobility\""
param *.s.**.initialX 500m
param *.s.**.initialY 500m
param *.s.**.initialZ 0m
param *.V[*].mobilityType "\"SUMOMobility\""
param *.V[*].mobility.constraintAreaMinX 0m
param *.V[*].mobility.constraintAreaMinY 0m
param *.V[*].mobility.constraintAreaMaxX 5000m
param *.V[*].mobility.constraintAreaMaxY 5000m
param *.configurator.dumpAddresses true
param *.configurator.dumpTopology true
param *.configurator.dumpLinks true
param *.configurator.dumpRoutes true
param **.ipv4.arp.typename "\"GlobalArp\""
param *.*.ipv4.routingTable.netmaskRoutes "\"\""
param **.numClient 10
param **.TrainingDeadline 16s
param *.V[*].numApps 4
param *.V[*].app[0].typename "\"ClientSink\""
param *.V[*].app[0].localPort 3000
param *.V[*].app[1].typename "\"exchangeInfo_broadcast\""
param *.V[*].app[1].destAddresses "\"224.0.0.9\""
param *.V[*].app[1].destPort 6000
param *.V[*].app[1].messageLength 30B
param *.V[*].app[1].sendInterval 0.1s
param *.V[*].app[1].startTime uniform(1s,1.2s)
param *.V[*].app[1].joinLocalMulticastGroups true
param **.checkInterval 3
param *.V[*].app[2].typename "\"exchangeInfo_sink\""
param *.V[*].app[2].localPort 6000
param *.V[*].app[2].multicastGroup "\"224.0.0.9\""
param *.V[*].app[3].typename "\"upload_ClientSession\""
param *.V[*].app[3].connectAddress "\"192.168.0.2\""
param *.V[*].app[3].connectPort 9000
param *.V[*].app[3].sendBytes 50000B
param *.V[*].app[3].localPort 8000
param *.V[*].app[3].tOpen 16s
param *.V[*].app[3].tSend 16s
param *.V[*].app[3].tClose -1s
param *.V[*].app[3].SelectClientNumPerCoverage 2
param **.selectionRange 200m
param **.modelSize 50000B
param *.s.numApps "10 + 1"
param *.s.app[0..29].typename "\"Broadcast\""
param *.s.app[0..29].connectAddress "\"192.168.0.\" + string(3 + ancestorIndex(0))"
param *.s.app[0..29].connectPort 3000
param *.s.app[0..29].sendBytes 50000B
param *.s.app[0..29].localPort "4000 + ancestorIndex(0)"
param *.s.app[0..29].tOpen 1.01s
param *.s.app[0..29].tSend 1.015s
param *.s.app[0..29].tClose -1s
param *.s.app[30].typename "\"upload_ServerSink\""
param *.s.app[30].localPort 9000
param **.wlan[0].opMode "\"p\""
param **.wlan[0].radio.typename "\"Ieee80211DimensionalRadio\""
param **.wlan[0].radio.bandName "\"5.9 GHz\""
param **.wlan[0].radio.channelNumber 3
param **.wlan[0].radio.transmitter.power 100mW
param **.wlan[0].radio.bandwidth "10 MHz"
param **.wlan[*].radio.antenna.mobility.typename "\"AttachedMobility\""
param **.wlan[*].radio.antenna.mobility.mobilityModule "\"^.^.^.^.mobility\""
param **.wlan[*].radio.antenna.mobility.offsetX -2.5m
param **.wlan[*].radio.antenna.mobility.offsetZ 1.5m
param **.wlan[*].radio.antenna.mobility.constraintAreaMinX 0m
param **.wlan[*].radio.antenna.mobility.constraintAreaMaxX 0m
param **.wlan[*].radio.antenna.mobility.constraintAreaMinY 0m
param **.wlan[*].radio.antenna.mobility.constraintAreaMaxY 0m
param **.channelModel.dynamic_los true
param *.V[*].app[0].computationCapability uniform(1,20)

scalar SingleCell.radioMedium.propagation "Arrival computation count" 28970
scalar SingleCell.radioMedium "transmission count" 2897
scalar SingleCell.radioMedium "signal send count" 28970
scalar SingleCell.radioMedium "reception computation count" 28970
scalar SingleCell.radioMedium "interference computation count" 89818
scalar SingleCell.radioMedium "reception decision computation count" 28970
scalar SingleCell.radioMedium "listening decision computation count" 31878
scalar SingleCell.radioMedium "reception cache hit" 85.714285714286
attr unit %
scalar SingleCell.radioMedium "interference cache hit" 66.666666666667
attr unit %
scalar SingleCell.radioMedium "noise cache hit" 0
attr unit %
scalar SingleCell.radioMedium "snir cache hit" 50
attr unit %
scalar SingleCell.radioMedium "reception decision cache hit" 50
attr unit %
scalar SingleCell.radioMedium "reception result cache hit" 0
attr unit %
scalar SingleCell.server.lo[0].lo rcvdPkFromHl:count 0
attr interpolationmode none
attr source packetReceivedFromUpper
attr title "packets received from higher layer, count"
scalar SingleCell.server.lo[0].lo rcvdPkFromHl:sum(packetBytes) 0
attr interpolationmode none
attr source packetReceivedFromUpper
attr title "packets received from higher layer, sum(packetBytes)"
scalar SingleCell.server.lo[0].lo passedUpPk:count 0
attr interpolationmode none
attr source packetSentToUpper
attr title "packets passed to higher layer, count"
scalar SingleCell.server.lo[0].lo passedUpPk:sum(packetBytes) 0
attr interpolationmode none
attr source packetSentToUpper
attr title "packets passed to higher layer, sum(packetBytes)"
scalar SingleCell.server.ppp[0].ppp.queue packetPopped:count 0
attr interpolationmode none
attr title "packet popped, count"
scalar SingleCell.server.ppp[0].ppp.queue packetPopped:sum(packetBytes) 0
attr interpolationmode none
attr title "packet popped, sum(packetBytes)"
statistic SingleCell.server.ppp[0].ppp.queue queueingTime:histogram
field count 0
field mean -nan
field stddev nan
field min nan
field max nan
field sum 0
field sqrsum 0
attr interpolationmode none
attr source queueingTime(packetPopped)
attr title "queueing times, histogram"
attr unit s
bin	-inf	0
bin	0	0
bin	1	0
scalar SingleCell.server.ppp[0].ppp.queue queueLength:max nan
attr interpolationmode sample-hold
attr source "count(packetPushed) - count(packetPopped) - count(packetRemoved) - count(packetDropped)"
attr title "queue length, max"
scalar SingleCell.server.ppp[0].ppp.queue queueLength:timeavg -nan
attr interpolationmode sample-hold
attr source "count(packetPushed) - count(packetPopped) - count(packetRemoved) - count(packetDropped)"
attr title "queue length, timeavg"
scalar SingleCell.server.ppp[0].ppp.queue packetPushed:count 0
attr interpolationmode none
attr title "packet pushed, count"
scalar SingleCell.server.ppp[0].ppp.queue packetPushed:sum(packetBytes) 0
attr interpolationmode none
attr title "packet pushed, sum(packetBytes)"
scalar SingleCell.server.ppp[0].ppp.queue packetDropQueueOverflow:count 0
attr interpolationmode none
attr source packetDropReasonIsQueueOverflow(packetDropped)
attr title "packet drops: queue overflow, count"
scalar SingleCell.server.ppp[0].ppp.queue packetDropQueueOverflow:sum(packetBytes) 0
attr interpolationmode none
attr source packetDropReasonIsQueueOverflow(packetDropped)
attr title "packet drops: queue overflow, sum(packetBytes)"
scalar SingleCell.server.ppp[0].ppp.queue packetRemoved:count 0
attr interpolationmode none
attr title "packets removed, count"
scalar SingleCell.server.ppp[0].ppp.queue packetRemoved:sum(packetBytes) 0
attr interpolationmode none
attr title "packets removed, sum(packetBytes)"
scalar SingleCell.server.ppp[0].ppp transmissionState:timeavg 0
attr interpolationmode sample-hold
attr source transmissionStateChanged
attr title "tx state, timeavg"
scalar SingleCell.server.ppp[0].ppp rxPkOk:count 0
attr interpolationmode none
attr source rxPkOk
attr title "packets received OK, count"
scalar SingleCell.server.ppp[0].ppp rxPkOk:sum(packetBytes) 0
attr interpolationmode none
attr source rxPkOk
attr title "packets received OK, sum(packetBytes)"
scalar SingleCell.server.ppp[0].ppp txPk:count 0
attr interpolationmode none
attr source packetSentToLower
attr title "packets transmitted, count"
scalar SingleCell.server.ppp[0].ppp txPk:sum(packetBytes) 0
attr interpolationmode none
attr source packetSentToLower
attr title "packets transmitted, sum(packetBytes)"
scalar SingleCell.server.ppp[0].ppp rcvdPkFromHl:count 0
attr interpolationmode none
attr source packetReceivedFromUpper
attr title "packets received from higher layer, count"
scalar SingleCell.server.ppp[0].ppp rcvdPkFromHl:sum(packetBytes) 0
attr interpolationmode none
attr source packetReceivedFromUpper
attr title "packets received from higher layer, sum(packetBytes)"
scalar SingleCell.server.ppp[0].ppp passedUpPk:count 0
attr interpolationmode none
attr source packetSentToUpper
attr title "packets passed to higher layer, count"
scalar SingleCell.server.ppp[0].ppp passedUpPk:sum(packetBytes) 0
attr interpolationmode none
attr source packetSentToUpper
attr title "packets passed to higher layer, sum(packetBytes)"
scalar SingleCell.server.ppp[0].ppp packetDropIncorrectlyReceived:count 0
attr interpolationmode none
attr source packetDropReasonIsIncorrectlyReceived(packetDropped)
attr title "packet drop: incorrectly received, count"
scalar SingleCell.server.ppp[0].ppp packetDropIncorrectlyReceived:sum(packetBytes) 0
attr interpolationmode none
attr source packetDropReasonIsIncorrectlyReceived(packetDropped)
attr title "packet drop: incorrectly received, sum(packetBytes)"
scalar SingleCell.server.ppp[0].ppp packetDropInterfaceDown:count 0
attr interpolationmode none
attr source packetDropReasonIsInterfaceDown(packetDropped)
attr title "packet drop: interface down, count"
scalar SingleCell.server.ppp[0].ppp packetDropInterfaceDown:sum(packetBytes) 0
attr interpolationmode none
attr source packetDropReasonIsInterfaceDown(packetDropped)
attr title "packet drop: interface down, sum(packetBytes)"
scalar SingleCell.server.ipv4.ip packetDropAddressResolutionFailed:count 0
attr interpolationmode none
attr source packetDropReasonIsAddressResolutionFailed(packetDropped)
attr title "packet drop: address resolution failed, count"
scalar SingleCell.server.ipv4.ip packetDropAddressResolutionFailed:sum(packetBytes) 0
attr interpolationmode none
attr source packetDropReasonIsAddressResolutionFailed(packetDropped)
attr title "packet drop: address resolution failed, sum(packetBytes)"
scalar SingleCell.server.ipv4.ip packetDropHopLimitReached:count 0
attr interpolationmode none
attr source packetDropReasonIsHopLimitReached(packetDropped)
attr title "packet drop: hop limit reached, count"
scalar SingleCell.server.ipv4.ip packetDropHopLimitReached:sum(packetBytes) 0
attr interpolationmode none
attr source packetDropReasonIsHopLimitReached(packetDropped)
attr title "packet drop: hop limit reached, sum(packetBytes)"
scalar SingleCell.server.ipv4.ip packetDropForwardingDisabled:count 0
attr interpolationmode none
attr source packetDropReasonIsForwardingDisabled(packetDropped)
attr title "packet drop: forwarding disabled, count"
scalar SingleCell.server.ipv4.ip packetDropForwardingDisabled:sum(packetBytes) 0
attr interpolationmode none
attr source packetDropReasonIsForwardingDisabled(packetDropped)
attr title "packet drop: forwarding disabled, sum(packetBytes)"
scalar SingleCell.server.ipv4.ip packetDropNoInterfaceFound:count 0
attr interpolationmode none
attr source packetDropReasonIsNoInterfaceFound(packetDropped)
attr title "packet drop: no interface found, count"
scalar SingleCell.server.ipv4.ip packetDropNoInterfaceFound:sum(packetBytes) 0
attr interpolationmode none
attr source packetDropReasonIsNoInterfaceFound(packetDropped)
attr title "packet drop: no interface found, sum(packetBytes)"
scalar SingleCell.server.ipv4.ip packetDropNoRouteFound:count 0
attr interpolationmode none
attr source packetDropReasonIsNoRouteFound(packetDropped)
attr title "packet drop: no route found, count"
scalar SingleCell.server.ipv4.ip packetDropNoRouteFound:sum(packetBytes) 0
attr interpolationmode none
attr source packetDropReasonIsNoRouteFound(packetDropped)
attr title "packet drop: no route found, sum(packetBytes)"
scalar SingleCell.server.ipv4.ip packetDropUndefined:count 0
attr interpolationmode none
attr source packetDropReasonIsUndefined(packetDropped)
attr title "packet drop: undefined, count"
scalar SingleCell.server.ipv4.ip packetDropUndefined:sum(packetBytes) 0
attr interpolationmode none
attr source packetDropReasonIsUndefined(packetDropped)
attr title "packet drop: undefined, sum(packetBytes)"
scalar SingleCell.server.udp packetReceived:count 0
attr interpolationmode none
attr source packetReceived
attr title "packets received, count"
scalar SingleCell.server.udp packetReceived:sum(packetBytes) 0
attr interpolationmode none
attr source packetReceived
attr title "packets received, sum(packetBytes)"
scalar SingleCell.server.udp packetSent:count 0
attr interpolationmode none
attr source packetSent
attr title "packets sent, count"
scalar SingleCell.server.udp packetSent:sum(packetBytes) 0
attr interpolationmode none
attr source packetSent
attr title "packets sent, sum(packetBytes)"
scalar SingleCell.server.udp passedUpPk:count 0
attr interpolationmode none
attr source packetSentToUpper
attr title "packets passed up, count"
scalar SingleCell.server.udp droppedPkWrongPort:count 0
attr interpolationmode none
attr source packetDropReasonIsNoPortFound(packetDropped)
attr title "packets dropped (wrong port), count"
scalar SingleCell.server.udp droppedPkBadChecksum:count 0
attr interpolationmode none
attr source packetDropReasonIsIncorrectlyReceived(packetDropped)
attr title "packets dropped (checksum error), count"
scalar SingleCell.router.lo[0].lo rcvdPkFromHl:count 0
attr interpolationmode none
attr source packetReceivedFromUpper
attr title "packets received from higher layer, count"
scalar SingleCell.router.lo[0].lo rcvdPkFromHl:sum(packetBytes) 0
attr interpolationmode none
attr source packetReceivedFromUpper
attr title "packets received from higher layer, sum(packetBytes)"
scalar SingleCell.router.lo[0].lo passedUpPk:count 0
attr interpolationmode none
attr source packetSentToUpper
attr title "packets passed to higher layer, count"
scalar SingleCell.router.lo[0].lo passedUpPk:sum(packetBytes) 0
attr interpolationmode none
attr source packetSentToUpper
attr title "packets passed to higher layer, sum(packetBytes)"
scalar SingleCell.router.ppp[0].ppp.queue packetPopped:count 0
attr interpolationmode none
attr title "packet popped, count"
scalar SingleCell.router.ppp[0].ppp.queue packetPopped:sum(packetBytes) 0
attr interpolationmode none
attr title "packet popped, sum(packetBytes)"
statistic SingleCell.router.ppp[0].ppp.queue queueingTime:histogram
field count 0
field mean -nan
field stddev nan
field min nan
field max nan
field sum 0
field sqrsum 0
attr interpolationmode none
attr source queueingTime(packetPopped)
attr title "queueing times, histogram"
attr unit s
bin	-inf	0
bin	0	0
bin	1	0
scalar SingleCell.router.ppp[0].ppp.queue queueLength:max nan
attr interpolationmode sample-hold
attr source "count(packetPushed) - count(packetPopped) - count(packetRemoved) - count(packetDropped)"
attr title "queue length, max"
scalar SingleCell.router.ppp[0].ppp.queue queueLength:timeavg -nan
attr interpolationmode sample-hold
attr source "count(packetPushed) - count(packetPopped) - count(packetRemoved) - count(packetDropped)"
attr title "queue length, timeavg"
scalar SingleCell.router.ppp[0].ppp.queue packetPushed:count 0
attr interpolationmode none
attr title "packet pushed, count"
scalar SingleCell.router.ppp[0].ppp.queue packetPushed:sum(packetBytes) 0
attr interpolationmode none
attr title "packet pushed, sum(packetBytes)"
scalar SingleCell.router.ppp[0].ppp.queue packetDropQueueOverflow:count 0
attr interpolationmode none
attr source packetDropReasonIsQueueOverflow(packetDropped)
attr title "packet drops: queue overflow, count"
scalar SingleCell.router.ppp[0].ppp.queue packetDropQueueOverflow:sum(packetBytes) 0
attr interpolationmode none
attr source packetDropReasonIsQueueOverflow(packetDropped)
attr title "packet drops: queue overflow, sum(packetBytes)"
scalar SingleCell.router.ppp[0].ppp.queue packetRemoved:count 0
attr interpolationmode none
attr title "packets removed, count"
scalar SingleCell.router.ppp[0].ppp.queue packetRemoved:sum(packetBytes) 0
attr interpolationmode none
attr title "packets removed, sum(packetBytes)"
scalar SingleCell.router.ppp[0].ppp transmissionState:timeavg 0
attr interpolationmode sample-hold
attr source transmissionStateChanged
attr title "tx state, timeavg"
scalar SingleCell.router.ppp[0].ppp rxPkOk:count 0
attr interpolationmode none
attr source rxPkOk
attr title "packets received OK, count"
scalar SingleCell.router.ppp[0].ppp rxPkOk:sum(packetBytes) 0
attr interpolationmode none
attr source rxPkOk
attr title "packets received OK, sum(packetBytes)"
scalar SingleCell.router.ppp[0].ppp txPk:count 0
attr interpolationmode none
attr source packetSentToLower
attr title "packets transmitted, count"
scalar SingleCell.router.ppp[0].ppp txPk:sum(packetBytes) 0
attr interpolationmode none
attr source packetSentToLower
attr title "packets transmitted, sum(packetBytes)"
scalar SingleCell.router.ppp[0].ppp rcvdPkFromHl:count 0
attr interpolationmode none
attr source packetReceivedFromUpper
attr title "packets received from higher layer, count"
scalar SingleCell.router.ppp[0].ppp rcvdPkFromHl:sum(packetBytes) 0
attr interpolationmode none
attr source packetReceivedFromUpper
attr title "packets received from higher layer, sum(packetBytes)"
scalar SingleCell.router.ppp[0].ppp passedUpPk:count 0
attr interpolationmode none
attr source packetSentToUpper
attr title "packets passed to higher layer, count"
scalar SingleCell.router.ppp[0].ppp passedUpPk:sum(packetBytes) 0
attr interpolationmode none
attr source packetSentToUpper
attr title "packets passed to higher layer, sum(packetBytes)"
scalar SingleCell.router.ppp[0].ppp packetDropIncorrectlyReceived:count 0
attr interpolationmode none
attr source packetDropReasonIsIncorrectlyReceived(packetDropped)
attr title "packet drop: incorrectly received, count"
scalar SingleCell.router.ppp[0].ppp packetDropIncorrectlyReceived:sum(packetBytes) 0
attr interpolationmode none
attr source packetDropReasonIsIncorrectlyReceived(packetDropped)
attr title "packet drop: incorrectly received, sum(packetBytes)"
scalar SingleCell.router.ppp[0].ppp packetDropInterfaceDown:count 0
attr interpolationmode none
attr source packetDropReasonIsInterfaceDown(packetDropped)
attr title "packet drop: interface down, count"
scalar SingleCell.router.ppp[0].ppp packetDropInterfaceDown:sum(packetBytes) 0
attr interpolationmode none
attr source packetDropReasonIsInterfaceDown(packetDropped)
attr title "packet drop: interface down, sum(packetBytes)"
scalar SingleCell.router.ppp[1].ppp.queue packetPopped:count 0
attr interpolationmode none
attr title "packet popped, count"
scalar SingleCell.router.ppp[1].ppp.queue packetPopped:sum(packetBytes) 0
attr interpolationmode none
attr title "packet popped, sum(packetBytes)"
statistic SingleCell.router.ppp[1].ppp.queue queueingTime:histogram
field count 0
field mean -nan
field stddev nan
field min nan
field max nan
field sum 0
field sqrsum 0
attr interpolationmode none
attr source queueingTime(packetPopped)
attr title "queueing times, histogram"
attr unit s
bin	-inf	0
bin	0	0
bin	1	0
scalar SingleCell.router.ppp[1].ppp.queue queueLength:max nan
attr interpolationmode sample-hold
attr source "count(packetPushed) - count(packetPopped) - count(packetRemoved) - count(packetDropped)"
attr title "queue length, max"
scalar SingleCell.router.ppp[1].ppp.queue queueLength:timeavg -nan
attr interpolationmode sample-hold
attr source "count(packetPushed) - count(packetPopped) - count(packetRemoved) - count(packetDropped)"
attr title "queue length, timeavg"
scalar SingleCell.router.ppp[1].ppp.queue packetPushed:count 0
attr interpolationmode none
attr title "packet pushed, count"
scalar SingleCell.router.ppp[1].ppp.queue packetPushed:sum(packetBytes) 0
attr interpolationmode none
attr title "packet pushed, sum(packetBytes)"
scalar SingleCell.router.ppp[1].ppp.queue packetDropQueueOverflow:count 0
attr interpolationmode none
attr source packetDropReasonIsQueueOverflow(packetDropped)
attr title "packet drops: queue overflow, count"
scalar SingleCell.router.ppp[1].ppp.queue packetDropQueueOverflow:sum(packetBytes) 0
attr interpolationmode none
attr source packetDropReasonIsQueueOverflow(packetDropped)
attr title "packet drops: queue overflow, sum(packetBytes)"
scalar SingleCell.router.ppp[1].ppp.queue packetRemoved:count 0
attr interpolationmode none
attr title "packets removed, count"
scalar SingleCell.router.ppp[1].ppp.queue packetRemoved:sum(packetBytes) 0
attr interpolationmode none
attr title "packets removed, sum(packetBytes)"
scalar SingleCell.router.ppp[1].ppp transmissionState:timeavg 0
attr interpolationmode sample-hold
attr source transmissionStateChanged
attr title "tx state, timeavg"
scalar SingleCell.router.ppp[1].ppp rxPkOk:count 0
attr interpolationmode none
attr source rxPkOk
attr title "packets received OK, count"
scalar SingleCell.router.ppp[1].ppp rxPkOk:sum(packetBytes) 0
attr interpolationmode none
attr source rxPkOk
attr title "packets received OK, sum(packetBytes)"
scalar SingleCell.router.ppp[1].ppp txPk:count 0
attr interpolationmode none
attr source packetSentToLower
attr title "packets transmitted, count"
scalar SingleCell.router.ppp[1].ppp txPk:sum(packetBytes) 0
attr interpolationmode none
attr source packetSentToLower
attr title "packets transmitted, sum(packetBytes)"
scalar SingleCell.router.ppp[1].ppp rcvdPkFromHl:count 0
attr interpolationmode none
attr source packetReceivedFromUpper
attr title "packets received from higher layer, count"
scalar SingleCell.router.ppp[1].ppp rcvdPkFromHl:sum(packetBytes) 0
attr interpolationmode none
attr source packetReceivedFromUpper
attr title "packets received from higher layer, sum(packetBytes)"
scalar SingleCell.router.ppp[1].ppp passedUpPk:count 0
attr interpolationmode none
attr source packetSentToUpper
attr title "packets passed to higher layer, count"
scalar SingleCell.router.ppp[1].ppp passedUpPk:sum(packetBytes) 0
attr interpolationmode none
attr source packetSentToUpper
attr title "packets passed to higher layer, sum(packetBytes)"
scalar SingleCell.router.ppp[1].ppp packetDropIncorrectlyReceived:count 0
attr interpolationmode none
attr source packetDropReasonIsIncorrectlyReceived(packetDropped)
attr title "packet drop: incorrectly received, count"
scalar SingleCell.router.ppp[1].ppp packetDropIncorrectlyReceived:sum(packetBytes) 0
attr interpolationmode none
attr source packetDropReasonIsIncorrectlyReceived(packetDropped)
attr title "packet drop: incorrectly received, sum(packetBytes)"
scalar SingleCell.router.ppp[1].ppp packetDropInterfaceDown:count 0
attr interpolationmode none
attr source packetDropReasonIsInterfaceDown(packetDropped)
attr title "packet drop: interface down, count"
scalar SingleCell.router.ppp[1].ppp packetDropInterfaceDown:sum(packetBytes) 0
attr interpolationmode none
attr source packetDropReasonIsInterfaceDown(packetDropped)
attr title "packet drop: interface down, sum(packetBytes)"
scalar SingleCell.router.ipv4.ip packetDropAddressResolutionFailed:count 0
attr interpolationmode none
attr source packetDropReasonIsAddressResolutionFailed(packetDropped)
attr title "packet drop: address resolution failed, count"
scalar SingleCell.router.ipv4.ip packetDropAddressResolutionFailed:sum(packetBytes) 0
attr interpolationmode none
attr source packetDropReasonIsAddressResolutionFailed(packetDropped)
attr title "packet drop: address resolution failed, sum(packetBytes)"
scalar SingleCell.router.ipv4.ip packetDropHopLimitReached:count 0
attr interpolationmode none
attr source packetDropReasonIsHopLimitReached(packetDropped)
attr title "packet drop: hop limit reached, count"
scalar SingleCell.router.ipv4.ip packetDropHopLimitReached:sum(packetBytes) 0
attr interpolationmode none
attr source packetDropReasonIsHopLimitReached(packetDropped)
attr title "packet drop: hop limit reached, sum(packetBytes)"
scalar SingleCell.router.ipv4.ip packetDropForwardingDisabled:count 0
attr interpolationmode none
attr source packetDropReasonIsForwardingDisabled(packetDropped)
attr title "packet drop: forwarding disabled, count"
scalar SingleCell.router.ipv4.ip packetDropForwardingDisabled:sum(packetBytes) 0
attr interpolationmode none
attr source packetDropReasonIsForwardingDisabled(packetDropped)
attr title "packet drop: forwarding disabled, sum(packetBytes)"
scalar SingleCell.router.ipv4.ip packetDropNoInterfaceFound:count 0
attr interpolationmode none
attr source packetDropReasonIsNoInterfaceFound(packetDropped)
attr title "packet drop: no interface found, count"
scalar SingleCell.router.ipv4.ip packetDropNoInterfaceFound:sum(packetBytes) 0
attr interpolationmode none
attr source packetDropReasonIsNoInterfaceFound(packetDropped)
attr title "packet drop: no interface found, sum(packetBytes)"
scalar SingleCell.router.ipv4.ip packetDropNoRouteFound:count 0
attr interpolationmode none
attr source packetDropReasonIsNoRouteFound(packetDropped)
attr title "packet drop: no route found, count"
scalar SingleCell.router.ipv4.ip packetDropNoRouteFound:sum(packetBytes) 0
attr interpolationmode none
attr source packetDropReasonIsNoRouteFound(packetDropped)
attr title "packet drop: no route found, sum(packetBytes)"
scalar SingleCell.router.ipv4.ip packetDropUndefined:count 0
attr interpolationmode none
attr source packetDropReasonIsUndefined(packetDropped)
attr title "packet drop: undefined, count"
scalar SingleCell.router.ipv4.ip packetDropUndefined:sum(packetBytes) 0
attr interpolationmode none
attr source packetDropReasonIsUndefined(packetDropped)
attr title "packet drop: undefined, sum(packetBytes)"
scalar SingleCell.pgw.lo[0].lo rcvdPkFromHl:count 0
attr interpolationmode none
attr source packetReceivedFromUpper
attr title "packets received from higher layer, count"
scalar SingleCell.pgw.lo[0].lo rcvdPkFromHl:sum(packetBytes) 0
attr interpolationmode none
attr source packetReceivedFromUpper
attr title "packets received from higher layer, sum(packetBytes)"
scalar SingleCell.pgw.lo[0].lo passedUpPk:count 0
attr interpolationmode none
attr source packetSentToUpper
attr title "packets passed to higher layer, count"
scalar SingleCell.pgw.lo[0].lo passedUpPk:sum(packetBytes) 0
attr interpolationmode none
attr source packetSentToUpper
attr title "packets passed to higher layer, sum(packetBytes)"
scalar SingleCell.pgw.ppp[0].ppp.queue packetPopped:count 0
attr interpolationmode none
attr title "packet popped, count"
scalar SingleCell.pgw.ppp[0].ppp.queue packetPopped:sum(packetBytes) 0
attr interpolationmode none
attr title "packet popped, sum(packetBytes)"
statistic SingleCell.pgw.ppp[0].ppp.queue queueingTime:histogram
field count 0
field mean -nan
field stddev nan
field min nan
field max nan
field sum 0
field sqrsum 0
attr interpolationmode none
attr source queueingTime(packetPopped)
attr title "queueing times, histogram"
attr unit s
bin	-inf	0
bin	0	0
bin	1	0
scalar SingleCell.pgw.ppp[0].ppp.queue queueLength:max nan
attr interpolationmode sample-hold
attr source "count(packetPushed) - count(packetPopped) - count(packetRemoved) - count(packetDropped)"
attr title "queue length, max"
scalar SingleCell.pgw.ppp[0].ppp.queue queueLength:timeavg -nan
attr interpolationmode sample-hold
attr source "count(packetPushed) - count(packetPopped) - count(packetRemoved) - count(packetDropped)"
attr title "queue length, timeavg"
scalar SingleCell.pgw.ppp[0].ppp.queue packetPushed:count 0
attr interpolationmode none
attr title "packet pushed, count"
scalar SingleCell.pgw.ppp[0].ppp.queue packetPushed:sum(packetBytes) 0
attr interpolationmode none
attr title "packet pushed, sum(packetBytes)"
scalar SingleCell.pgw.ppp[0].ppp.queue packetDropQueueOverflow:count 0
attr interpolationmode none
attr source packetDropReasonIsQueueOverflow(packetDropped)
attr title "packet drops: queue overflow, count"
scalar SingleCell.pgw.ppp[0].ppp.queue packetDropQueueOverflow:sum(packetBytes) 0
attr interpolationmode none
attr source packetDropReasonIsQueueOverflow(packetDropped)
attr title "packet drops: queue overflow, sum(packetBytes)"
scalar SingleCell.pgw.ppp[0].ppp.queue packetRemoved:count 0
attr interpolationmode none
attr title "packets removed, count"
scalar SingleCell.pgw.ppp[0].ppp.queue packetRemoved:sum(packetBytes) 0
attr interpolationmode none
attr title "packets removed, sum(packetBytes)"
scalar SingleCell.pgw.ppp[0].ppp transmissionState:timeavg 0
attr interpolationmode sample-hold
attr source transmissionStateChanged
attr title "tx state, timeavg"
scalar SingleCell.pgw.ppp[0].ppp rxPkOk:count 0
attr interpolationmode none
attr source rxPkOk
attr title "packets received OK, count"
scalar SingleCell.pgw.ppp[0].ppp rxPkOk:sum(packetBytes) 0
attr interpolationmode none
attr source rxPkOk
attr title "packets received OK, sum(packetBytes)"
scalar SingleCell.pgw.ppp[0].ppp txPk:count 0
attr interpolationmode none
attr source packetSentToLower
attr title "packets transmitted, count"
scalar SingleCell.pgw.ppp[0].ppp txPk:sum(packetBytes) 0
attr interpolationmode none
attr source packetSentToLower
attr title "packets transmitted, sum(packetBytes)"
scalar SingleCell.pgw.ppp[0].ppp rcvdPkFromHl:count 0
attr interpolationmode none
attr source packetReceivedFromUpper
attr title "packets received from higher layer, count"
scalar SingleCell.pgw.ppp[0].ppp rcvdPkFromHl:sum(packetBytes) 0
attr interpolationmode none
attr source packetReceivedFromUpper
attr title "packets received from higher layer, sum(packetBytes)"
scalar SingleCell.pgw.ppp[0].ppp passedUpPk:count 0
attr interpolationmode none
attr source packetSentToUpper
attr title "packets passed to higher layer, count"
scalar SingleCell.pgw.ppp[0].ppp passedUpPk:sum(packetBytes) 0
attr interpolationmode none
attr source packetSentToUpper
attr title "packets passed to higher layer, sum(packetBytes)"
scalar SingleCell.pgw.ppp[0].ppp packetDropIncorrectlyReceived:count 0
attr interpolationmode none
attr source packetDropReasonIsIncorrectlyReceived(packetDropped)
attr title "packet drop: incorrectly received, count"
scalar SingleCell.pgw.ppp[0].ppp packetDropIncorrectlyReceived:sum(packetBytes) 0
attr interpolationmode none
attr source packetDropReasonIsIncorrectlyReceived(packetDropped)
attr title "packet drop: incorrectly received, sum(packetBytes)"
scalar SingleCell.pgw.ppp[0].ppp packetDropInterfaceDown:count 0
attr interpolationmode none
attr source packetDropReasonIsInterfaceDown(packetDropped)
attr title "packet drop: interface down, count"
scalar SingleCell.pgw.ppp[0].ppp packetDropInterfaceDown:sum(packetBytes) 0
attr interpolationmode none
attr source packetDropReasonIsInterfaceDown(packetDropped)
attr title "packet drop: interface down, sum(packetBytes)"
scalar SingleCell.pgw.ipv4.ip packetDropAddressResolutionFailed:count 0
attr interpolationmode none
attr source packetDropReasonIsAddressResolutionFailed(packetDropped)
attr title "packet drop: address resolution failed, count"
scalar SingleCell.pgw.ipv4.ip packetDropAddressResolutionFailed:sum(packetBytes) 0
attr interpolationmode none
attr source packetDropReasonIsAddressResolutionFailed(packetDropped)
attr title "packet drop: address resolution failed, sum(packetBytes)"
scalar SingleCell.pgw.ipv4.ip packetDropHopLimitReached:count 0
attr interpolationmode none
attr source packetDropReasonIsHopLimitReached(packetDropped)
attr title "packet drop: hop limit reached, count"
scalar SingleCell.pgw.ipv4.ip packetDropHopLimitReached:sum(packetBytes) 0
attr interpolationmode none
attr source packetDropReasonIsHopLimitReached(packetDropped)
attr title "packet drop: hop limit reached, sum(packetBytes)"
scalar SingleCell.pgw.ipv4.ip packetDropForwardingDisabled:count 0
attr interpolationmode none
attr source packetDropReasonIsForwardingDisabled(packetDropped)
attr title "packet drop: forwarding disabled, count"
scalar SingleCell.pgw.ipv4.ip packetDropForwardingDisabled:sum(packetBytes) 0
attr interpolationmode none
attr source packetDropReasonIsForwardingDisabled(packetDropped)
attr title "packet drop: forwarding disabled, sum(packetBytes)"
scalar SingleCell.pgw.ipv4.ip packetDropNoInterfaceFound:count 0
attr interpolationmode none
attr source packetDropReasonIsNoInterfaceFound(packetDropped)
attr title "packet drop: no interface found, count"
scalar SingleCell.pgw.ipv4.ip packetDropNoInterfaceFound:sum(packetBytes) 0
attr interpolationmode none
attr source packetDropReasonIsNoInterfaceFound(packetDropped)
attr title "packet drop: no interface found, sum(packetBytes)"
scalar SingleCell.pgw.ipv4.ip packetDropNoRouteFound:count 0
attr interpolationmode none
attr source packetDropReasonIsNoRouteFound(packetDropped)
attr title "packet drop: no route found, count"
scalar SingleCell.pgw.ipv4.ip packetDropNoRouteFound:sum(packetBytes) 0
attr interpolationmode none
attr source packetDropReasonIsNoRouteFound(packetDropped)
attr title "packet drop: no route found, sum(packetBytes)"
scalar SingleCell.pgw.ipv4.ip packetDropUndefined:count 0
attr interpolationmode none
attr source packetDropReasonIsUndefined(packetDropped)
attr title "packet drop: undefined, count"
scalar SingleCell.pgw.ipv4.ip packetDropUndefined:sum(packetBytes) 0
attr interpolationmode none
attr source packetDropReasonIsUndefined(packetDropped)
attr title "packet drop: undefined, sum(packetBytes)"
scalar SingleCell.pgw.pppIf.ppp.queue packetPopped:count 0
attr interpolationmode none
attr title "packet popped, count"
scalar SingleCell.pgw.pppIf.ppp.queue packetPopped:sum(packetBytes) 0
attr interpolationmode none
attr title "packet popped, sum(packetBytes)"
statistic SingleCell.pgw.pppIf.ppp.queue queueingTime:histogram
field count 0
field mean -nan
field stddev nan
field min nan
field max nan
field sum 0
field sqrsum 0
attr interpolationmode none
attr source queueingTime(packetPopped)
attr title "queueing times, histogram"
attr unit s
bin	-inf	0
bin	0	0
bin	1	0
scalar SingleCell.pgw.pppIf.ppp.queue queueLength:max nan
attr interpolationmode sample-hold
attr source "count(packetPushed) - count(packetPopped) - count(packetRemoved) - count(packetDropped)"
attr title "queue length, max"
scalar SingleCell.pgw.pppIf.ppp.queue queueLength:timeavg -nan
attr interpolationmode sample-hold
attr source "count(packetPushed) - count(packetPopped) - count(packetRemoved) - count(packetDropped)"
attr title "queue length, timeavg"
scalar SingleCell.pgw.pppIf.ppp.queue packetPushed:count 0
attr interpolationmode none
attr title "packet pushed, count"
scalar SingleCell.pgw.pppIf.ppp.queue packetPushed:sum(packetBytes) 0
attr interpolationmode none
attr title "packet pushed, sum(packetBytes)"
scalar SingleCell.pgw.pppIf.ppp.queue packetDropQueueOverflow:count 0
attr interpolationmode none
attr source packetDropReasonIsQueueOverflow(packetDropped)
attr title "packet drops: queue overflow, count"
scalar SingleCell.pgw.pppIf.ppp.queue packetDropQueueOverflow:sum(packetBytes) 0
attr interpolationmode none
attr source packetDropReasonIsQueueOverflow(packetDropped)
attr title "packet drops: queue overflow, sum(packetBytes)"
scalar SingleCell.pgw.pppIf.ppp.queue packetRemoved:count 0
attr interpolationmode none
attr title "packets removed, count"
scalar SingleCell.pgw.pppIf.ppp.queue packetRemoved:sum(packetBytes) 0
attr interpolationmode none
attr title "packets removed, sum(packetBytes)"
scalar SingleCell.pgw.pppIf.ppp transmissionState:timeavg 0
attr interpolationmode sample-hold
attr source transmissionStateChanged
attr title "tx state, timeavg"
scalar SingleCell.pgw.pppIf.ppp rxPkOk:count 0
attr interpolationmode none
attr source rxPkOk
attr title "packets received OK, count"
scalar SingleCell.pgw.pppIf.ppp rxPkOk:sum(packetBytes) 0
attr interpolationmode none
attr source rxPkOk
attr title "packets received OK, sum(packetBytes)"
scalar SingleCell.pgw.pppIf.ppp txPk:count 0
attr interpolationmode none
attr source packetSentToLower
attr title "packets transmitted, count"
scalar SingleCell.pgw.pppIf.ppp txPk:sum(packetBytes) 0
attr interpolationmode none
attr source packetSentToLower
attr title "packets transmitted, sum(packetBytes)"
scalar SingleCell.pgw.pppIf.ppp rcvdPkFromHl:count 0
attr interpolationmode none
attr source packetReceivedFromUpper
attr title "packets received from higher layer, count"
scalar SingleCell.pgw.pppIf.ppp rcvdPkFromHl:sum(packetBytes) 0
attr interpolationmode none
attr source packetReceivedFromUpper
attr title "packets received from higher layer, sum(packetBytes)"
scalar SingleCell.pgw.pppIf.ppp passedUpPk:count 0
attr interpolationmode none
attr source packetSentToUpper
attr title "packets passed to higher layer, count"
scalar SingleCell.pgw.pppIf.ppp passedUpPk:sum(packetBytes) 0
attr interpolationmode none
attr source packetSentToUpper
attr title "packets passed to higher layer, sum(packetBytes)"
scalar SingleCell.pgw.pppIf.ppp packetDropIncorrectlyReceived:count 0
attr interpolationmode none
attr source packetDropReasonIsIncorrectlyReceived(packetDropped)
attr title "packet drop: incorrectly received, count"
scalar SingleCell.pgw.pppIf.ppp packetDropIncorrectlyReceived:sum(packetBytes) 0
attr interpolationmode none
attr source packetDropReasonIsIncorrectlyReceived(packetDropped)
attr title "packet drop: incorrectly received, sum(packetBytes)"
scalar SingleCell.pgw.pppIf.ppp packetDropInterfaceDown:count 0
attr interpolationmode none
attr source packetDropReasonIsInterfaceDown(packetDropped)
attr title "packet drop: interface down, count"
scalar SingleCell.pgw.pppIf.ppp packetDropInterfaceDown:sum(packetBytes) 0
attr interpolationmode none
attr source packetDropReasonIsInterfaceDown(packetDropped)
attr title "packet drop: interface down, sum(packetBytes)"
scalar SingleCell.pgw.udp packetReceived:count 0
attr interpolationmode none
attr source packetReceived
attr title "packets received, count"
scalar SingleCell.pgw.udp packetReceived:sum(packetBytes) 0
attr interpolationmode none
attr source packetReceived
attr title "packets received, sum(packetBytes)"
scalar SingleCell.pgw.udp packetSent:count 0
attr interpolationmode none
attr source packetSent
attr title "packets sent, count"
scalar SingleCell.pgw.udp packetSent:sum(packetBytes) 0
attr interpolationmode none
attr source packetSent
attr title "packets sent, sum(packetBytes)"
scalar SingleCell.pgw.udp passedUpPk:count 0
attr interpolationmode none
attr source packetSentToUpper
attr title "packets passed up, count"
scalar SingleCell.pgw.udp droppedPkWrongPort:count 0
attr interpolationmode none
attr source packetDropReasonIsNoPortFound(packetDropped)
attr title "packets dropped (wrong port), count"
scalar SingleCell.pgw.udp droppedPkBadChecksum:count 0
attr interpolationmode none
attr source packetDropReasonIsIncorrectlyReceived(packetDropped)
attr title "packets dropped (checksum error), count"
scalar SingleCell.eNB.lteNic.pdcpRrc sentPacketToLowerLayer:count 0
attr interpolationmode none
attr source sentPacketToLowerLayer
scalar SingleCell.eNB.lteNic.pdcpRrc sentPacketToLowerLayer:sum(packetBytes) 0
attr interpolationmode none
attr source sentPacketToLowerLayer
scalar SingleCell.eNB.lteNic.pdcpRrc sentPacketToUpperLayer:count 0
attr interpolationmode none
attr source sentPacketToUpperLayer
scalar SingleCell.eNB.lteNic.pdcpRrc sentPacketToUpperLayer:sum(packetBytes) 0
attr interpolationmode none
attr source sentPacketToUpperLayer
scalar SingleCell.eNB.lteNic.pdcpRrc receivedPacketFromLowerLayer:count 0
attr interpolationmode none
attr source receivedPacketFromLowerLayer
scalar SingleCell.eNB.lteNic.pdcpRrc receivedPacketFromLowerLayer:sum(packetBytes) 0
attr interpolationmode none
attr source receivedPacketFromLowerLayer
scalar SingleCell.eNB.lteNic.pdcpRrc receivedPacketFromUpperLayer:count 0
attr interpolationmode none
attr source receivedPacketFromUpperLayer
scalar SingleCell.eNB.lteNic.pdcpRrc receivedPacketFromUpperLayer:sum(packetBytes) 0
attr interpolationmode none
attr source receivedPacketFromUpperLayer
scalar SingleCell.eNB.lteNic.rlc.tm rlcPacketLossDl:mean -nan
attr source rlcPacketLossDl
attr title "rlc Packet Loss, mean"
attr unit ""
scalar SingleCell.eNB.lteNic.rlc.tm rlcPacketLossDl:sum 0
attr source rlcPacketLossDl
attr title "rlc Packet Loss, sum"
attr unit ""
scalar SingleCell.eNB.lteNic.rlc.tm rlcPacketLossUl:mean -nan
attr source rlcPacketLossUl
attr title "rlc Packet Loss, mean"
attr unit ""
scalar SingleCell.eNB.lteNic.rlc.tm rlcPacketLossUl:sum 0
attr source rlcPacketLossUl
attr title "rlc Packet Loss, sum"
attr unit ""
scalar SingleCell.eNB.lteNic.rlc.tm sentPacketToLowerLayer:count 0
attr interpolationmode none
attr source sentPacketToLowerLayer
scalar SingleCell.eNB.lteNic.rlc.tm sentPacketToLowerLayer:sum(packetBytes) 0
attr interpolationmode none
attr source sentPacketToLowerLayer
scalar SingleCell.eNB.lteNic.rlc.tm sentPacketToUpperLayer:count 0
attr interpolationmode none
attr source sentPacketToUpperLayer
scalar SingleCell.eNB.lteNic.rlc.tm sentPacketToUpperLayer:sum(packetBytes) 0
attr interpolationmode none
attr source sentPacketToUpperLayer
scalar SingleCell.eNB.lteNic.rlc.tm receivedPacketFromLowerLayer:count 0
attr interpolationmode none
attr source receivedPacketFromLowerLayer
scalar SingleCell.eNB.lteNic.rlc.tm receivedPacketFromLowerLayer:sum(packetBytes) 0
attr interpolationmode none
attr source receivedPacketFromLowerLayer
scalar SingleCell.eNB.lteNic.rlc.tm receivedPacketFromUpperLayer:count 0
attr interpolationmode none
attr source receivedPacketFromUpperLayer
scalar SingleCell.eNB.lteNic.rlc.tm receivedPacketFromUpperLayer:sum(packetBytes) 0
attr interpolationmode none
attr source receivedPacketFromUpperLayer
scalar SingleCell.eNB.lteNic.rlc.um rlcPduPacketLossDl:mean -nan
attr source rlcPduPacketLossDl
attr title "rlc Packet Loss, mean"
attr unit ""
scalar SingleCell.eNB.lteNic.rlc.um rlcPduPacketLossUl:mean -nan
attr source rlcPduPacketLossUl
attr title "rlc Packet Loss, mean"
attr unit ""
scalar SingleCell.eNB.lteNic.rlc.um rlcPduThroughputUl:mean -nan
attr source rlcPduThroughputUl
attr title "Throughput at the rlc layer UL, mean"
attr unit Bps
scalar SingleCell.eNB.lteNic.rlc.um rlcPduDelayUl:mean -nan
attr source rlcPduDelayUl
attr title "Delay at the rlc layer UL, mean"
attr unit s
scalar SingleCell.eNB.lteNic.rlc.um rlcPduThroughputDl:mean -nan
attr source rlcPduThroughputDl
attr title "Throughput at the rlc layer DL, mean"
attr unit Bps
scalar SingleCell.eNB.lteNic.rlc.um rlcPduDelayDl:mean -nan
attr source rlcPduDelayDl
attr title "Delay at the rlc layer UL, mean"
attr unit s
scalar SingleCell.eNB.lteNic.rlc.um rlcCellPacketLossUl:mean -nan
attr source rlcCellPacketLossUl
attr title "rlc Cell Packet Loss, mean"
attr unit ""
scalar SingleCell.eNB.lteNic.rlc.um rlcCellPacketLossDl:mean -nan
attr source rlcCellPacketLossDl
attr title "rlc Cell Packet Loss, mean"
attr unit ""
scalar SingleCell.eNB.lteNic.rlc.um rlcCellThroughputDl:mean -nan
attr source rlcCellThroughputDl
attr title "Cell Throughput at the rlc layer DL, mean"
attr unit Bps
scalar SingleCell.eNB.lteNic.rlc.um rlcCellThroughputUl:mean -nan
attr source rlcCellThroughputUl
attr title "Cell Throughput at the rlc layer UL, mean"
attr unit Bps
scalar SingleCell.eNB.lteNic.rlc.um rlcPacketLossTotal:mean -nan
attr source rlcPacketLossTotal
attr title "rlc Packet Loss, mean"
attr unit ""
scalar SingleCell.eNB.lteNic.rlc.um rlcThroughputUl:mean -nan
attr source rlcThroughputUl
attr title "Throughput at the rlc layer UL, mean"
attr unit Bps
scalar SingleCell.eNB.lteNic.rlc.um rlcDelayUl:mean -nan
attr source rlcDelayUl
attr title "Delay at the rlc layer UL, mean"
attr unit s
scalar SingleCell.eNB.lteNic.rlc.um rlcThroughputDl:mean -nan
attr source rlcThroughputDl
attr title "Throughput at the rlc layer DL, mean"
attr unit Bps
scalar SingleCell.eNB.lteNic.rlc.um rlcDelayDl:mean -nan
attr source rlcDelayDl
attr title "Delay at the rlc layer UL, mean"
attr unit s
scalar SingleCell.eNB.lteNic.rlc.um rlcPacketLossDl:mean -nan
attr source rlcPacketLossDl
attr title "rlc Packet Loss, mean"
attr unit ""
scalar SingleCell.eNB.lteNic.rlc.um rlcPacketLossDl:sum 0
attr source rlcPacketLossDl
attr title "rlc Packet Loss, sum"
attr unit ""
scalar SingleCell.eNB.lteNic.rlc.um rlcPacketLossUl:mean -nan
attr source rlcPacketLossUl
attr title "rlc Packet Loss, mean"
attr unit ""
scalar SingleCell.eNB.lteNic.rlc.um rlcPacketLossUl:sum 0
attr source rlcPacketLossUl
attr title "rlc Packet Loss, sum"
attr unit ""
scalar SingleCell.eNB.lteNic.rlc.um sentPacketToLowerLayer:count 0
attr interpolationmode none
attr source sentPacketToLowerLayer
scalar SingleCell.eNB.lteNic.rlc.um sentPacketToLowerLayer:sum(packetBytes) 0
attr interpolationmode none
attr source sentPacketToLowerLayer
scalar SingleCell.eNB.lteNic.rlc.um sentPacketToUpperLayer:count 0
attr interpolationmode none
attr source sentPacketToUpperLayer
scalar SingleCell.eNB.lteNic.rlc.um sentPacketToUpperLayer:sum(packetBytes) 0
attr interpolationmode none
attr source sentPacketToUpperLayer
scalar SingleCell.eNB.lteNic.rlc.um receivedPacketFromLowerLayer:count 0
attr interpolationmode none
attr source receivedPacketFromLowerLayer
scalar SingleCell.eNB.lteNic.rlc.um receivedPacketFromLowerLayer:sum(packetBytes) 0
attr interpolationmode none
attr source receivedPacketFromLowerLayer
scalar SingleCell.eNB.lteNic.rlc.um receivedPacketFromUpperLayer:count 0
attr interpolationmode none
attr source receivedPacketFromUpperLayer
scalar SingleCell.eNB.lteNic.rlc.um receivedPacketFromUpperLayer:sum(packetBytes) 0
attr interpolationmode none
attr source receivedPacketFromUpperLayer
scalar SingleCell.eNB.lteNic.rlc.am rlcPduPacketLossDl:mean -nan
attr source rlcPduPacketLossDl
attr title "rlc Packet Loss, mean"
attr unit ""
scalar SingleCell.eNB.lteNic.rlc.am rlcPduPacketLossUl:mean -nan
attr source rlcPduPacketLossUl
attr title "rlc Packet Loss, mean"
attr unit ""
scalar SingleCell.eNB.lteNic.rlc.am rlcPduThroughputUl:mean -nan
attr source rlcPduThroughputUl
attr title "Throughput at the rlc layer UL, mean"
attr unit Bps
scalar SingleCell.eNB.lteNic.rlc.am rlcPduDelayUl:mean -nan
attr source rlcPduDelayUl
attr title "Delay at the rlc layer UL, mean"
attr unit s
scalar SingleCell.eNB.lteNic.rlc.am rlcPduThroughputDl:mean -nan
attr source rlcPduThroughputDl
attr title "Throughput at the rlc layer DL, mean"
attr unit Bps
scalar SingleCell.eNB.lteNic.rlc.am rlcPduDelayDl:mean -nan
attr source rlcPduDelayDl
attr title "Delay at the rlc layer UL, mean"
attr unit s
scalar SingleCell.eNB.lteNic.rlc.am rlcCellPacketLossUl:mean -nan
attr source rlcCellPacketLossUl
attr title "rlc Cell Packet Loss, mean"
attr unit ""
scalar SingleCell.eNB.lteNic.rlc.am rlcCellPacketLossDl:mean -nan
attr source rlcCellPacketLossDl
attr title "rlc Cell Packet Loss, mean"
attr unit ""
scalar SingleCell.eNB.lteNic.rlc.am rlcCellThroughputDl:mean -nan
attr source rlcCellThroughputDl
attr title "Cell Throughput at the rlc layer DL, mean"
attr unit Bps
scalar SingleCell.eNB.lteNic.rlc.am rlcCellThroughputUl:mean -nan
attr source rlcCellThroughputUl
attr title "Cell Throughput at the rlc layer UL, mean"
attr unit Bps
scalar SingleCell.eNB.lteNic.rlc.am rlcPacketLossTotal:mean -nan
attr source rlcPacketLossTotal
attr title "rlc Packet Loss, mean"
attr unit ""
scalar SingleCell.eNB.lteNic.rlc.am rlcThroughputUl:mean -nan
attr source rlcThroughputUl
attr title "Throughput at the rlc layer UL, mean"
attr unit Bps
scalar SingleCell.eNB.lteNic.rlc.am rlcDelayUl:mean -nan
attr source rlcDelayUl
attr title "Delay at the rlc layer UL, mean"
attr unit s
scalar SingleCell.eNB.lteNic.rlc.am rlcThroughputDl:mean -nan
attr source rlcThroughputDl
attr title "Throughput at the rlc layer DL, mean"
attr unit Bps
scalar SingleCell.eNB.lteNic.rlc.am rlcDelayDl:mean -nan
attr source rlcDelayDl
attr title "Delay at the rlc layer UL, mean"
attr unit s
scalar SingleCell.eNB.lteNic.rlc.am rlcPacketLossDl:mean -nan
attr source rlcPacketLossDl
attr title "rlc Packet Loss, mean"
attr unit ""
scalar SingleCell.eNB.lteNic.rlc.am rlcPacketLossUl:mean -nan
attr source rlcPacketLossUl
attr title "rlc Packet Loss, mean"
attr unit ""
scalar SingleCell.eNB.lteNic.mac avgServedBlocksUl:mean 0
attr source avgServedBlocksUl
attr title "LTE Avg Served Blocks Ul, mean"
attr unit blocks
scalar SingleCell.eNB.lteNic.mac avgServedBlocksDl:mean 0
attr source avgServedBlocksDl
attr title "LTE Avg Served Blocks Dl, mean"
attr unit blocks
scalar SingleCell.eNB.lteNic.mac cellBlocksUtilizationUl:mean 0
attr source cellBlocksUtilizationUl
attr title "LTE Cell Blocks Utilization Ul, mean"
attr unit blocks
scalar SingleCell.eNB.lteNic.mac cellBlocksUtilizationDl:mean 0
attr source cellBlocksUtilizationDl
attr title "LTE Cell Blocks Utilization Dl, mean"
attr unit blocks
scalar SingleCell.eNB.lteNic.mac measuredItbs:mean -nan
attr source measuredItbs
attr title "TBS index, mean"
attr unit ""
scalar SingleCell.eNB.lteNic.mac harqErrorRate_4th_Dl:mean -nan
attr source harqErrorRate_4th_Dl
attr title "Harq Error Rate Dl, mean"
attr unit ""
scalar SingleCell.eNB.lteNic.mac harqErrorRate_4th_Ul:mean -nan
attr source harqErrorRate_4th_Ul
attr title "Harq Error Rate Ul, mean"
attr unit ""
scalar SingleCell.eNB.lteNic.mac harqErrorRate_3rd_Dl:mean -nan
attr source harqErrorRate_3rd_Dl
attr title "Harq Error Rate Dl, mean"
attr unit ""
scalar SingleCell.eNB.lteNic.mac harqErrorRate_3rd_Ul:mean -nan
attr source harqErrorRate_3rd_Ul
attr title "Harq Error Rate Ul, mean"
attr unit ""
scalar SingleCell.eNB.lteNic.mac harqErrorRate_2nd_Dl:mean -nan
attr source harqErrorRate_2nd_Dl
attr title "Harq Error Rate Dl, mean"
attr unit ""
scalar SingleCell.eNB.lteNic.mac harqErrorRate_2nd_Ul:mean -nan
attr source harqErrorRate_2nd_Ul
attr title "Harq Error Rate Ul, mean"
attr unit ""
scalar SingleCell.eNB.lteNic.mac harqErrorRate_1st_Dl:mean -nan
attr source harqErrorRate_1st_Dl
attr title "Harq Error Rate Dl, mean"
attr unit ""
scalar SingleCell.eNB.lteNic.mac harqErrorRate_1st_Ul:mean -nan
attr source harqErrorRate_1st_Ul
attr title "Harq Error Rate Ul, mean"
attr unit ""
scalar SingleCell.eNB.lteNic.mac harqErrorRateDl:mean -nan
attr source harqErrorRateDl
attr title "Harq Error Rate Dl, mean"
attr unit ""
scalar SingleCell.eNB.lteNic.mac harqErrorRateUl:mean -nan
attr source harqErrorRateUl
attr title "Harq Error Rate Ul, mean"
attr unit ""
scalar SingleCell.eNB.lteNic.mac macBufferOverFlowD2D:mean -nan
attr source macBufferOverFlowD2D
attr title "Mac buffer overflow as function of time, mean"
attr unit Byte/s
scalar SingleCell.eNB.lteNic.mac macBufferOverFlowUl:mean -nan
attr source macBufferOverFlowUl
attr title "Mac buffer overflow as function of time, mean"
attr unit Byte/s
scalar SingleCell.eNB.lteNic.mac macBufferOverFlowDl:mean -nan
attr source macBufferOverFlowDl
attr title "Mac buffer overflow as function of time, mean"
attr unit Byte/s
scalar SingleCell.eNB.lteNic.mac macPacketLossDl:mean -nan
attr source macPacketLossDl
attr title "Mac Packet Loss Dl, mean"
attr unit ""
scalar SingleCell.eNB.lteNic.mac macPacketLossUl:mean -nan
attr source macPacketLossUl
attr title "Mac Packet Loss Ul, mean"
attr unit ""
scalar SingleCell.eNB.lteNic.mac macCellPacketLossUl:mean -nan
attr source macCellPacketLossUl
attr title "Mac Cell Packet Loss Ul, mean"
attr unit ""
scalar SingleCell.eNB.lteNic.mac macCellPacketLossDl:mean -nan
attr source macCellPacketLossDl
attr title "Mac Cell Packet Loss Dl, mean"
attr unit ""
scalar SingleCell.eNB.lteNic.mac macCellThroughputDl:mean -nan
attr source macCellThroughputDl
attr title "Cell Throughput at the MAC layer DL, mean"
attr unit Bps
scalar SingleCell.eNB.lteNic.mac macCellThroughputUl:mean -nan
attr source macCellThroughputUl
attr title "Cell Throughput at the MAC layer UL, mean"
attr unit Bps
scalar SingleCell.eNB.lteNic.mac macThroughputUl:mean -nan
attr source macThroughputUl
attr title "Throughput at the MAC layer UL, mean"
attr unit Bps
scalar SingleCell.eNB.lteNic.mac macDelayUl:mean -nan
attr source macDelayUl
attr title "Delay at the MAC layer UL, mean"
attr unit s
scalar SingleCell.eNB.lteNic.mac macThroughputDl:mean -nan
attr source macThroughputDl
attr title "Throughput at the MAC layer DL, mean"
attr unit Bps
scalar SingleCell.eNB.lteNic.mac macDelayDl:mean -nan
attr source macDelayDl
attr title "Delay at the MAC layer UL, mean"
attr unit s
scalar SingleCell.eNB.lteNic.mac sentPacketToLowerLayer:count 5798
attr interpolationmode none
attr source sentPacketToLowerLayer
scalar SingleCell.eNB.lteNic.mac sentPacketToLowerLayer:sum(packetBytes) 5798
attr interpolationmode none
attr source sentPacketToLowerLayer
scalar SingleCell.eNB.lteNic.mac sentPacketToUpperLayer:count 0
attr interpolationmode none
attr source sentPacketToUpperLayer
scalar SingleCell.eNB.lteNic.mac sentPacketToUpperLayer:sum(packetBytes) 0
attr interpolationmode none
attr source sentPacketToUpperLayer
scalar SingleCell.eNB.lteNic.mac receivedPacketFromLowerLayer:count 60798
attr interpolationmode none
attr source receivedPacketFromLowerLayer
scalar SingleCell.eNB.lteNic.mac receivedPacketFromLowerLayer:sum(packetBytes) 60798
attr interpolationmode none
attr source receivedPacketFromLowerLayer
scalar SingleCell.eNB.lteNic.mac receivedPacketFromUpperLayer:count 0
attr interpolationmode none
attr source receivedPacketFromUpperLayer
scalar SingleCell.eNB.lteNic.mac receivedPacketFromUpperLayer:sum(packetBytes) 0
attr interpolationmode none
attr source receivedPacketFromUpperLayer
scalar SingleCell.eNB.lteNic.channelModel rcvdSinr:mean -nan
attr source rcvdSinr
attr title "SINR measured at packet reception, mean"
attr unit dB
scalar SingleCell.eNB.pppIf.ppp.queue packetPopped:count 0
attr interpolationmode none
attr title "packet popped, count"
scalar SingleCell.eNB.pppIf.ppp.queue packetPopped:sum(packetBytes) 0
attr interpolationmode none
attr title "packet popped, sum(packetBytes)"
statistic SingleCell.eNB.pppIf.ppp.queue queueingTime:histogram
field count 0
field mean -nan
field stddev nan
field min nan
field max nan
field sum 0
field sqrsum 0
attr interpolationmode none
attr source queueingTime(packetPopped)
attr title "queueing times, histogram"
attr unit s
bin	-inf	0
bin	0	0
bin	1	0
scalar SingleCell.eNB.pppIf.ppp.queue queueLength:max nan
attr interpolationmode sample-hold
attr source "count(packetPushed) - count(packetPopped) - count(packetRemoved) - count(packetDropped)"
attr title "queue length, max"
scalar SingleCell.eNB.pppIf.ppp.queue queueLength:timeavg -nan
attr interpolationmode sample-hold
attr source "count(packetPushed) - count(packetPopped) - count(packetRemoved) - count(packetDropped)"
attr title "queue length, timeavg"
scalar SingleCell.eNB.pppIf.ppp.queue packetPushed:count 0
attr interpolationmode none
attr title "packet pushed, count"
scalar SingleCell.eNB.pppIf.ppp.queue packetPushed:sum(packetBytes) 0
attr interpolationmode none
attr title "packet pushed, sum(packetBytes)"
scalar SingleCell.eNB.pppIf.ppp.queue packetDropQueueOverflow:count 0
attr interpolationmode none
attr source packetDropReasonIsQueueOverflow(packetDropped)
attr title "packet drops: queue overflow, count"
scalar SingleCell.eNB.pppIf.ppp.queue packetDropQueueOverflow:sum(packetBytes) 0
attr interpolationmode none
attr source packetDropReasonIsQueueOverflow(packetDropped)
attr title "packet drops: queue overflow, sum(packetBytes)"
scalar SingleCell.eNB.pppIf.ppp.queue packetRemoved:count 0
attr interpolationmode none
attr title "packets removed, count"
scalar SingleCell.eNB.pppIf.ppp.queue packetRemoved:sum(packetBytes) 0
attr interpolationmode none
attr title "packets removed, sum(packetBytes)"
scalar SingleCell.eNB.pppIf.ppp transmissionState:timeavg 0
attr interpolationmode sample-hold
attr source transmissionStateChanged
attr title "tx state, timeavg"
scalar SingleCell.eNB.pppIf.ppp rxPkOk:count 0
attr interpolationmode none
attr source rxPkOk
attr title "packets received OK, count"
scalar SingleCell.eNB.pppIf.ppp rxPkOk:sum(packetBytes) 0
attr interpolationmode none
attr source rxPkOk
attr title "packets received OK, sum(packetBytes)"
scalar SingleCell.eNB.pppIf.ppp txPk:count 0
attr interpolationmode none
attr source packetSentToLower
attr title "packets transmitted, count"
scalar SingleCell.eNB.pppIf.ppp txPk:sum(packetBytes) 0
attr interpolationmode none
attr source packetSentToLower
attr title "packets transmitted, sum(packetBytes)"
scalar SingleCell.eNB.pppIf.ppp rcvdPkFromHl:count 0
attr interpolationmode none
attr source packetReceivedFromUpper
attr title "packets received from higher layer, count"
scalar SingleCell.eNB.pppIf.ppp rcvdPkFromHl:sum(packetBytes) 0
attr interpolationmode none
attr source packetReceivedFromUpper
attr title "packets received from higher layer, sum(packetBytes)"
scalar SingleCell.eNB.pppIf.ppp passedUpPk:count 0
attr interpolationmode none
attr source packetSentToUpper
attr title "packets passed to higher layer, count"
scalar SingleCell.eNB.pppIf.ppp passedUpPk:sum(packetBytes) 0
attr interpolationmode none
attr source packetSentToUpper
attr title "packets passed to higher layer, sum(packetBytes)"
scalar SingleCell.eNB.pppIf.ppp packetDropIncorrectlyReceived:count 0
attr interpolationmode none
attr source packetDropReasonIsIncorrectlyReceived(packetDropped)
attr title "packet drop: incorrectly received, count"
scalar SingleCell.eNB.pppIf.ppp packetDropIncorrectlyReceived:sum(packetBytes) 0
attr interpolationmode none
attr source packetDropReasonIsIncorrectlyReceived(packetDropped)
attr title "packet drop: incorrectly received, sum(packetBytes)"
scalar SingleCell.eNB.pppIf.ppp packetDropInterfaceDown:count 0
attr interpolationmode none
attr source packetDropReasonIsInterfaceDown(packetDropped)
attr title "packet drop: interface down, count"
scalar SingleCell.eNB.pppIf.ppp packetDropInterfaceDown:sum(packetBytes) 0
attr interpolationmode none
attr source packetDropReasonIsInterfaceDown(packetDropped)
attr title "packet drop: interface down, sum(packetBytes)"
scalar SingleCell.eNB.ipv4.ip packetDropAddressResolutionFailed:count 0
attr interpolationmode none
attr source packetDropReasonIsAddressResolutionFailed(packetDropped)
attr title "packet drop: address resolution failed, count"
scalar SingleCell.eNB.ipv4.ip packetDropAddressResolutionFailed:sum(packetBytes) 0
attr interpolationmode none
attr source packetDropReasonIsAddressResolutionFailed(packetDropped)
attr title "packet drop: address resolution failed, sum(packetBytes)"
scalar SingleCell.eNB.ipv4.ip packetDropHopLimitReached:count 0
attr interpolationmode none
attr source packetDropReasonIsHopLimitReached(packetDropped)
attr title "packet drop: hop limit reached, count"
scalar SingleCell.eNB.ipv4.ip packetDropHopLimitReached:sum(packetBytes) 0
attr interpolationmode none
attr source packetDropReasonIsHopLimitReached(packetDropped)
attr title "packet drop: hop limit reached, sum(packetBytes)"
scalar SingleCell.eNB.ipv4.ip packetDropForwardingDisabled:count 0
attr interpolationmode none
attr source packetDropReasonIsForwardingDisabled(packetDropped)
attr title "packet drop: forwarding disabled, count"
scalar SingleCell.eNB.ipv4.ip packetDropForwardingDisabled:sum(packetBytes) 0
attr interpolationmode none
attr source packetDropReasonIsForwardingDisabled(packetDropped)
attr title "packet drop: forwarding disabled, sum(packetBytes)"
scalar SingleCell.eNB.ipv4.ip packetDropNoInterfaceFound:count 0
attr interpolationmode none
attr source packetDropReasonIsNoInterfaceFound(packetDropped)
attr title "packet drop: no interface found, count"
scalar SingleCell.eNB.ipv4.ip packetDropNoInterfaceFound:sum(packetBytes) 0
attr interpolationmode none
attr source packetDropReasonIsNoInterfaceFound(packetDropped)
attr title "packet drop: no interface found, sum(packetBytes)"
scalar SingleCell.eNB.ipv4.ip packetDropNoRouteFound:count 0
attr interpolationmode none
attr source packetDropReasonIsNoRouteFound(packetDropped)
attr title "packet drop: no route found, count"
scalar SingleCell.eNB.ipv4.ip packetDropNoRouteFound:sum(packetBytes) 0
attr interpolationmode none
attr source packetDropReasonIsNoRouteFound(packetDropped)
attr title "packet drop: no route found, sum(packetBytes)"
scalar SingleCell.eNB.ipv4.ip packetDropUndefined:count 0
attr interpolationmode none
attr source packetDropReasonIsUndefined(packetDropped)
attr title "packet drop: undefined, count"
scalar SingleCell.eNB.ipv4.ip packetDropUndefined:sum(packetBytes) 0
attr interpolationmode none
attr source packetDropReasonIsUndefined(packetDropped)
attr title "packet drop: undefined, sum(packetBytes)"
scalar SingleCell.eNB.udp packetReceived:count 0
attr interpolationmode none
attr source packetReceived
attr title "packets received, count"
scalar SingleCell.eNB.udp packetReceived:sum(packetBytes) 0
attr interpolationmode none
attr source packetReceived
attr title "packets received, sum(packetBytes)"
scalar SingleCell.eNB.udp packetSent:count 0
attr interpolationmode none
attr source packetSent
attr title "packets sent, count"
scalar SingleCell.eNB.udp packetSent:sum(packetBytes) 0
attr interpolationmode none
attr source packetSent
attr title "packets sent, sum(packetBytes)"
scalar SingleCell.eNB.udp passedUpPk:count 0
attr interpolationmode none
attr source packetSentToUpper
attr title "packets passed up, count"
scalar SingleCell.eNB.udp droppedPkWrongPort:count 0
attr interpolationmode none
attr source packetDropReasonIsNoPortFound(packetDropped)
attr title "packets dropped (wrong port), count"
scalar SingleCell.eNB.udp droppedPkBadChecksum:count 0
attr interpolationmode none
attr source packetDropReasonIsIncorrectlyReceived(packetDropped)
attr title "packets dropped (checksum error), count"
scalar SingleCell.s.wlan[0].mac.dcf.channelAccess.pendingQueue packetPopped:count 0
attr interpolationmode none
attr title "packet popped, count"
scalar SingleCell.s.wlan[0].mac.dcf.channelAccess.pendingQueue packetPopped:sum(packetBytes) 0
attr interpolationmode none
attr title "packet popped, sum(packetBytes)"
statistic SingleCell.s.wlan[0].mac.dcf.channelAccess.pendingQueue queueingTime:histogram
field count 0
field mean -nan
field stddev nan
field min nan
field max nan
field sum 0
field sqrsum 0
attr interpolationmode none
attr source queueingTime(packetPopped)
attr title "queueing times, histogram"
attr unit s
bin	-inf	0
bin	0	0
bin	1	0
scalar SingleCell.s.wlan[0].mac.dcf.channelAccess.pendingQueue queueLength:max nan
attr interpolationmode sample-hold
attr source "count(packetPushed) - count(packetPopped) - count(packetRemoved) - count(packetDropped)"
attr title "queue length, max"
scalar SingleCell.s.wlan[0].mac.dcf.channelAccess.pendingQueue queueLength:timeavg -nan
attr interpolationmode sample-hold
attr source "count(packetPushed) - count(packetPopped) - count(packetRemoved) - count(packetDropped)"
attr title "queue length, timeavg"
scalar SingleCell.s.wlan[0].mac.dcf.channelAccess.pendingQueue packetPushed:count 0
attr interpolationmode none
attr title "packet pushed, count"
scalar SingleCell.s.wlan[0].mac.dcf.channelAccess.pendingQueue packetPushed:sum(packetBytes) 0
attr interpolationmode none
attr title "packet pushed, sum(packetBytes)"
scalar SingleCell.s.wlan[0].mac.dcf.channelAccess.pendingQueue packetDropQueueOverflow:count 0
attr interpolationmode none
attr source packetDropReasonIsQueueOverflow(packetDropped)
attr title "packet drops: queue overflow, count"
scalar SingleCell.s.wlan[0].mac.dcf.channelAccess.pendingQueue packetDropQueueOverflow:sum(packetBytes) 0
attr interpolationmode none
attr source packetDropReasonIsQueueOverflow(packetDropped)
attr title "packet drops: queue overflow, sum(packetBytes)"
scalar SingleCell.s.wlan[0].mac.dcf.channelAccess.pendingQueue packetRemoved:count 0
attr interpolationmode none
attr title "packets removed, count"
scalar SingleCell.s.wlan[0].mac.dcf.channelAccess.pendingQueue packetRemoved:sum(packetBytes) 0
attr interpolationmode none
attr title "packets removed, sum(packetBytes)"
statistic SingleCell.s.wlan[0].mac.dcf.channelAccess.inProgressFrames queueingTime:histogram
field count 0
field mean -nan
field stddev nan
field min nan
field max nan
field sum 0
field sqrsum 0
attr interpolationmode none
attr source queueingTime(packetDequeued)
attr title "queueing times, histogram"
bin	-inf	0
bin	0	0
bin	1	0
scalar SingleCell.s.wlan[0].mac.dcf.channelAccess.inProgressFrames queueLength:max nan
attr interpolationmode sample-hold
attr source "count(packetEnqueued) - count(packetDequeued)"
attr title "queue length, max"
scalar SingleCell.s.wlan[0].mac.dcf.channelAccess.inProgressFrames queueLength:timeavg -nan
attr interpolationmode sample-hold
attr source "count(packetEnqueued) - count(packetDequeued)"
attr title "queue length, timeavg"
scalar SingleCell.s.wlan[0].mac.dcf.channelAccess.contention channelAccessGranted:count 0
attr title "channel access granted, count"
scalar SingleCell.s.wlan[0].mac.dcf.channelAccess.contention stateChanged:count 11590
attr interpolationmode none
attr title "contention state changed, count"
scalar SingleCell.s.wlan[0].mac.dcf.channelAccess channelOwnershipChanged:count 0
attr interpolationmode sample-hold
attr title "channel ownership, count"
scalar SingleCell.s.wlan[0].mac.dcf.originatorMacDataService packetAggregated:count 0
attr title "packets aggregated, count"
scalar SingleCell.s.wlan[0].mac.dcf.originatorMacDataService packetFragmented:count 0
attr title "packets fragmented, count"
scalar SingleCell.s.wlan[0].mac.dcf.recipientMacDataService packetDeaggregated:count 0
attr title "packets deaggregated, count"
scalar SingleCell.s.wlan[0].mac.dcf.recipientMacDataService packetDefragmented:count 2897
attr title "packets defragmented, count"
scalar SingleCell.s.wlan[0].mac.dcf.recipientMacDataService packetDropDuplicateDetected:count 0
attr interpolationmode none
attr source packetDropReasonIsDuplicateDetected(packetDropped)
attr title "packet drops: duplicate detected, count"
scalar SingleCell.s.wlan[0].mac.dcf.recipientMacDataService packetDropDuplicateDetected:sum(packetBytes) 0
attr interpolationmode none
attr source packetDropReasonIsDuplicateDetected(packetDropped)
attr title "packet drops: duplicate detected, sum(packetBytes)"
scalar SingleCell.s.wlan[0].mac.dcf.recoveryProcedure retryLimitReached:count 0
attr title "retry limit reached, count"
scalar SingleCell.s.wlan[0].mac.dcf frameSequenceFinished:count 0
attr title "finished frame sequences, count"
statistic SingleCell.s.wlan[0].mac.dcf frameSequenceDuration:histogram
field count 0
field mean -nan
field stddev nan
field min nan
field max nan
field sum 0
field sqrsum 0
attr source frameSequenceDuration(frameSequenceFinished)
attr title "frame sequence durations, histogram"
bin	-inf	0
bin	0	0
bin	1	0
statistic SingleCell.s.wlan[0].mac.dcf frameSequenceNumPackets:histogram
field count 0
field mean -nan
field stddev nan
field min nan
field max nan
field sum 0
field sqrsum 0
attr source frameSequenceNumPackets(frameSequenceFinished)
attr title "frame sequences: number of packets, histogram"
bin	-inf	0
bin	0	0
bin	1	0
scalar SingleCell.s.wlan[0].mac.dcf packetReceivedFromPeer:count 2897
attr interpolationmode none
attr title "packets received, count"
scalar SingleCell.s.wlan[0].mac.dcf packetReceivedFromPeer:sum(packetBytes) 254936
attr interpolationmode none
attr title "packets received, sum(packetBytes)"
scalar SingleCell.s.wlan[0].mac.dcf packetReceivedFromPeerUnicast:count 0
attr interpolationmode none
attr source ieee80211Unicast(packetReceivedFromPeer)
attr title "packets received: unicast, count"
scalar SingleCell.s.wlan[0].mac.dcf packetReceivedFromPeerUnicast:sum(packetBytes) 0
attr interpolationmode none
attr source ieee80211Unicast(packetReceivedFromPeer)
attr title "packets received: unicast, sum(packetBytes)"
scalar SingleCell.s.wlan[0].mac.dcf packetReceivedFromPeerMulticast:count 2897
attr interpolationmode none
attr source ieee80211Multicast(packetReceivedFromPeer)
attr title "packets received: multicast, count"
scalar SingleCell.s.wlan[0].mac.dcf packetReceivedFromPeerMulticast:sum(packetBytes) 254936
attr interpolationmode none
attr source ieee80211Multicast(packetReceivedFromPeer)
attr title "packets received: multicast, sum(packetBytes)"
scalar SingleCell.s.wlan[0].mac.dcf packetReceivedFromPeerBroadcast:count 0
attr interpolationmode none
attr source ieee80211Broadcast(packetReceivedFromPeer)
attr title "packets received: broadcast, count"
scalar SingleCell.s.wlan[0].mac.dcf packetReceivedFromPeerBroadcast:sum(packetBytes) 0
attr interpolationmode none
attr source ieee80211Broadcast(packetReceivedFromPeer)
attr title "packets received: broadcast, sum(packetBytes)"
scalar SingleCell.s.wlan[0].mac.dcf packetReceivedFromPeerWithRetry:count 0
attr interpolationmode none
attr source ieee80211Retry(packetReceivedFromPeer)
attr title "packets received: with retry, count"
scalar SingleCell.s.wlan[0].mac.dcf packetReceivedFromPeerWithRetry:sum(packetBytes) 0
attr interpolationmode none
attr source ieee80211Retry(packetReceivedFromPeer)
attr title "packets received: with retry, sum(packetBytes)"
scalar SingleCell.s.wlan[0].mac.dcf packetReceivedFromPeerWithoutRetry:count 2897
attr interpolationmode none
attr source ieee80211NotRetry(packetReceivedFromPeer)
attr title "packets received: without retry, count"
scalar SingleCell.s.wlan[0].mac.dcf packetReceivedFromPeerWithoutRetry:sum(packetBytes) 254936
attr interpolationmode none
attr source ieee80211NotRetry(packetReceivedFromPeer)
attr title "packets received: without retry, sum(packetBytes)"
scalar SingleCell.s.wlan[0].mac.dcf packetSentToPeer:count 0
attr interpolationmode none
attr title "packets sent, count"
scalar SingleCell.s.wlan[0].mac.dcf packetSentToPeer:sum(packetBytes) 0
attr interpolationmode none
attr title "packets sent, sum(packetBytes)"
scalar SingleCell.s.wlan[0].mac.dcf packetSentToPeerUnicast:count 0
attr interpolationmode none
attr source ieee80211Unicast(packetSentToPeer)
attr title "packets sent: unicast, count"
scalar SingleCell.s.wlan[0].mac.dcf packetSentToPeerUnicast:sum(packetBytes) 0
attr interpolationmode none
attr source ieee80211Unicast(packetSentToPeer)
attr title "packets sent: unicast, sum(packetBytes)"
scalar SingleCell.s.wlan[0].mac.dcf packetSentToPeerMulticast:count 0
attr interpolationmode none
attr source ieee80211Multicast(packetSentToPeer)
attr title "packets sent: multicast, count"
scalar SingleCell.s.wlan[0].mac.dcf packetSentToPeerMulticast:sum(packetBytes) 0
attr interpolationmode none
attr source ieee80211Multicast(packetSentToPeer)
attr title "packets sent: multicast, sum(packetBytes)"
scalar SingleCell.s.wlan[0].mac.dcf packetSentToPeerBroadcast:count 0
attr interpolationmode none
attr source ieee80211Broadcast(packetSentToPeer)
attr title "packets sent: broadcast , count"
scalar SingleCell.s.wlan[0].mac.dcf packetSentToPeerBroadcast:sum(packetBytes) 0
attr interpolationmode none
attr source ieee80211Broadcast(packetSentToPeer)
attr title "packets sent: broadcast , sum(packetBytes)"
scalar SingleCell.s.wlan[0].mac.dcf packetSentToPeerWithRetry:count 0
attr interpolationmode none
attr source ieee80211Retry(packetSentToPeer)
attr title "packets sent: with retry, count"
scalar SingleCell.s.wlan[0].mac.dcf packetSentToPeerWithRetry:sum(packetBytes) 0
attr interpolationmode none
attr source ieee80211Retry(packetSentToPeer)
attr title "packets sent: with retry, sum(packetBytes)"
scalar SingleCell.s.wlan[0].mac.dcf packetSentToPeerWithoutRetry:count 0
attr interpolationmode none
attr source ieee80211NotRetry(packetSentToPeer)
attr title "packets sent: without retry, count"
scalar SingleCell.s.wlan[0].mac.dcf packetSentToPeerWithoutRetry:sum(packetBytes) 0
attr interpolationmode none
attr source ieee80211NotRetry(packetSentToPeer)
attr title "packets sent: without retry, sum(packetBytes)"
scalar SingleCell.s.wlan[0].mac.dcf packetDrop:count 0
attr interpolationmode none
attr source packetDropped
attr title "packet drops, count"
scalar SingleCell.s.wlan[0].mac.dcf packetDrop:sum(packetBytes) 0
attr interpolationmode none
attr source packetDropped
attr title "packet drops, sum(packetBytes)"
scalar SingleCell.s.wlan[0].mac.dcf packetDropNotAddressedToUs:count 0
attr interpolationmode none
attr source packetDropReasonIsNotAddressedToUs(packetDropped)
attr title "packet drops: not addressed to us, count"
scalar SingleCell.s.wlan[0].mac.dcf packetDropNotAddressedToUs:sum(packetBytes) 0
attr interpolationmode none
attr source packetDropReasonIsNotAddressedToUs(packetDropped)
attr title "packet drops: not addressed to us, sum(packetBytes)"
scalar SingleCell.s.wlan[0].mac.dcf packetDropQueueOverflow:count 0
attr interpolationmode none
attr source packetDropReasonIsQueueOverflow(packetDropped)
attr title "packet drops: queue overflow, count"
scalar SingleCell.s.wlan[0].mac.dcf packetDropQueueOverflow:sum(packetBytes) 0
attr interpolationmode none
attr source packetDropReasonIsQueueOverflow(packetDropped)
attr title "packet drops: queue overflow, sum(packetBytes)"
scalar SingleCell.s.wlan[0].mac.dcf packetDropRetryLimitReached:count 0
attr interpolationmode none
attr source packetDropReasonIsRetryLimitReached(packetDropped)
attr title "packet drops: retry limit reached, count"
scalar SingleCell.s.wlan[0].mac.dcf packetDropRetryLimitReached:sum(packetBytes) 0
attr interpolationmode none
attr source packetDropReasonIsRetryLimitReached(packetDropped)
attr title "packet drops: retry limit reached, sum(packetBytes)"
scalar SingleCell.s.wlan[0].mac.dcf linkBroken:count 0
attr interpolationmode none
attr title "link breaks, count"
scalar SingleCell.s.wlan[0].mac packetReceivedFromLower:count 2897
attr interpolationmode none
attr title "packets received from lower layer, count"
scalar SingleCell.s.wlan[0].mac packetReceivedFromLower:sum(packetBytes) 254936
attr interpolationmode none
attr title "packets received from lower layer, sum(packetBytes)"
scalar SingleCell.s.wlan[0].mac packetSentToLower:count 0
attr interpolationmode none
attr title "packets sent to lower layer, count"
scalar SingleCell.s.wlan[0].mac packetSentToLower:sum(packetBytes) 0
attr interpolationmode none
attr title "packets sent to lower layer, sum(packetBytes)"
scalar SingleCell.s.wlan[0].mac packetReceivedFromUpper:count 0
attr interpolationmode none
attr title "packets received from upper layer, count"
scalar SingleCell.s.wlan[0].mac packetReceivedFromUpper:sum(packetBytes) 0
attr interpolationmode none
attr title "packets received from upper layer, sum(packetBytes)"
scalar SingleCell.s.wlan[0].mac packetSentToUpper:count 2897
attr interpolationmode none
attr title "packets sent to upper layer, count"
scalar SingleCell.s.wlan[0].mac packetSentToUpper:sum(packetBytes) 173820
attr interpolationmode none
attr title "packets sent to upper layer, sum(packetBytes)"
scalar SingleCell.s.wlan[0].mac packetDrop:count 0
attr interpolationmode none
attr source packetDropped
attr title "packet drops, count"
scalar SingleCell.s.wlan[0].mac packetDrop:sum(packetBytes) 0
attr interpolationmode none
attr source packetDropped
attr title "packet drops, sum(packetBytes)"
scalar SingleCell.s.wlan[0].mac packetDropIncorrectlyReceived:count 0
attr interpolationmode none
attr source packetDropReasonIsIncorrectlyReceived(packetDropped)
attr title "packet drops: incorrectly received, count"
scalar SingleCell.s.wlan[0].mac packetDropIncorrectlyReceived:sum(packetBytes) 0
attr interpolationmode none
attr source packetDropReasonIsIncorrectlyReceived(packetDropped)
attr title "packet drops: incorrectly received, sum(packetBytes)"
scalar SingleCell.s.wlan[0].mac packetDropNotAddressedToUs:count 0
attr interpolationmode none
attr source packetDropReasonIsNotAddressedToUs(packetDropped)
attr title "packet drops: not addressed to us, count"
scalar SingleCell.s.wlan[0].mac packetDropNotAddressedToUs:sum(packetBytes) 0
attr interpolationmode none
attr source packetDropReasonIsNotAddressedToUs(packetDropped)
attr title "packet drops: not addressed to us, sum(packetBytes)"
scalar SingleCell.s.wlan[0].mac packetDropQueueOverflow:count 0
attr interpolationmode none
attr source packetDropReasonIsQueueOverflow(packetDropped)
attr title "packet drops: queue overflow, count"
scalar SingleCell.s.wlan[0].mac packetDropQueueOverflow:sum(packetBytes) 0
attr interpolationmode none
attr source packetDropReasonIsQueueOverflow(packetDropped)
attr title "packet drops: queue overflow, sum(packetBytes)"
scalar SingleCell.s.wlan[0].mac packetDropRetryLimitReached:count 0
attr interpolationmode none
attr source packetDropReasonIsRetryLimitReached(packetDropped)
attr title "packet drops: retry limit reached, count"
scalar SingleCell.s.wlan[0].mac packetDropRetryLimitReached:sum(packetBytes) 0
attr interpolationmode none
attr source packetDropReasonIsRetryLimitReached(packetDropped)
attr title "packet drops: retry limit reached, sum(packetBytes)"
scalar SingleCell.s.wlan[0].mac packetDropDuplicateDetected:count 0
attr interpolationmode none
attr source packetDropReasonIsDuplicateDetected(packetDropped)
attr title "packet drops: duplicate detected, count"
scalar SingleCell.s.wlan[0].mac packetDropDuplicateDetected:sum(packetBytes) 0
attr interpolationmode none
attr source packetDropReasonIsDuplicateDetected(packetDropped)
attr title "packet drops: duplicate detected, sum(packetBytes)"
scalar SingleCell.s.wlan[0].mac packetDropOther:count 0
attr interpolationmode none
attr source packetDropReasonIsOther(packetDropped)
attr title "packet drops: other, count"
scalar SingleCell.s.wlan[0].mac packetDropOther:sum(packetBytes) 0
attr interpolationmode none
attr source packetDropReasonIsOther(packetDropped)
attr title "packet drops: other, sum(packetBytes)"
scalar SingleCell.s.wlan[0].mac linkBroken:count 0
attr interpolationmode none
attr title "link breaks, count"
statistic SingleCell.s.wlan[0].radio radioChannel:histogram
field count 1
field mean 3
field stddev -nan
field min 3
field max 3
field sum 3
field sqrsum 9
attr interpolationmode sample-hold
attr source radioChannelChanged
attr title "Radio channel, histogram"
bin	-inf	0
bin	2	0
bin	3	1
bin	4	0
scalar SingleCell.s.wlan[0].radio radioMode:count 3
attr interpolationmode sample-hold
attr source radioModeChanged
attr title "Radio mode, count"
scalar SingleCell.s.wlan[0].radio receptionState:count 5795
attr interpolationmode sample-hold
attr source receptionStateChanged
attr title "Radio reception state, count"
scalar SingleCell.s.wlan[0].radio transmissionState:count 0
attr interpolationmode sample-hold
attr source transmissionStateChanged
attr title "Radio transmission state, count"
statistic SingleCell.s.wlan[0].radio minSnir:histogram
field count 2897
field mean 7681.4528320836
field stddev 20195.66456599
field min 829.29894564621
field max 181375.73364583
field sum 22253168.854546
field sqrsum 1352113322511.3
attr source minimumSnir(packetSentToUpper)
attr title "Min SNIR, histogram"
bin	-inf	0
bin	0	1910
bin	4000	617
bin	8000	70
bin	12000	30
bin	16000	31
bin	20000	50
bin	24000	30
bin	28000	10
bin	32000	20
bin	36000	9
bin	40000	10
bin	44000	20
bin	48000	0
bin	52000	10
bin	56000	10
bin	60000	10
bin	64000	0
bin	68000	10
bin	72000	0
bin	76000	0
bin	80000	0
bin	84000	0
bin	88000	10
bin	92000	0
bin	96000	0
bin	100000	0
bin	104000	0
bin	108000	10
bin	112000	0
bin	116000	0
bin	120000	0
bin	124000	0
bin	128000	0
bin	132000	0
bin	136000	0
bin	140000	10
bin	144000	0
bin	148000	0
bin	152000	0
bin	156000	0
bin	160000	0
bin	164000	10
bin	168000	0
bin	172000	0
[...]
bin	0.0001052	60
bin	0.00010525	40
bin	0.0001053	70
bin	0.00010535	140
bin	0.0001054	60
bin	0.00010545	50
bin	0.0001055	40
bin	0.00010555	30
bin	0.0001056	40
bin	0.00010565	101
bin	0.0001057	50
bin	0.00010575	21
bin	0.0001058	20
bin	0.00010585	50
bin	0.0001059	40
bin	0.00010595	20
bin	0.000106	0
bin	0.00010605	0
bin	0.0001061	0
bin	0.00010615	0
bin	0.0001062	0
bin	0.00010625	0
bin	0.0001063	0
scalar SingleCell.V[9].app[3] bytesRcvd 0
scalar SingleCell.V[9].app[3] bytesSent 0
scalar SingleCell.V[9].app[3] packetReceived:count 0
attr interpolationmode none
attr source packetReceived
attr title "packets received, count"
scalar SingleCell.V[9].app[3] packetReceived:sum(packetBytes) 0
attr interpolationmode none
attr source packetReceived
attr title "packets received, sum(packetBytes)"
statistic SingleCell.V[9].app[3] endToEndDelay:histogram
field count 0
field mean -nan
field stddev nan
field min nan
field max nan
field sum 0
field sqrsum 0
attr interpolationmode none
attr source dataAge(packetReceived)
attr title "end-to-end delay, histogram"
attr unit s
bin	-inf	0
bin	0	0
bin	1	0
statistic SingleCell.V[9].app[3] endToEndDelay:weightedHistogram
field count 0
field mean -nan
field stddev nan
field min nan
field max nan
field weights 0
field weightedSum 0
field sqrSumWeights 0
field weightedSqrSum 0
attr interpolationmode none
attr source dataAge(packetReceived)
attr title "end-to-end delay, weightedHistogram"
attr unit s
bin	-inf	0
bin	0	0
bin	1	0
scalar SingleCell.V[9].app[3] packetSent:count 0
attr interpolationmode none
attr source packetSent
attr title "packets sent, count"
scalar SingleCell.V[9].app[3] packetSent:sum(packetBytes) 0
attr interpolationmode none
attr source packetSent
attr title "packets sent, sum(packetBytes)"
scalar SingleCell.V[9].udp packetReceived:count 2607
attr interpolationmode none
attr source packetReceived
attr title "packets received, count"
scalar SingleCell.V[9].udp packetReceived:sum(packetBytes) 99066
attr interpolationmode none
attr source packetReceived
attr title "packets received, sum(packetBytes)"
scalar SingleCell.V[9].udp packetSent:count 290
attr interpolationmode none
attr source packetSent
attr title "packets sent, count"
scalar SingleCell.V[9].udp packetSent:sum(packetBytes) 11020
attr interpolationmode none
attr source packetSent
attr title "packets sent, sum(packetBytes)"
scalar SingleCell.V[9].udp passedUpPk:count 2607
attr interpolationmode none
attr source packetSentToUpper
attr title "packets passed up, count"
scalar SingleCell.V[9].udp droppedPkWrongPort:count 0
attr interpolationmode none
attr source packetDropReasonIsNoPortFound(packetDropped)
attr title "packets dropped (wrong port), count"
scalar SingleCell.V[9].udp droppedPkBadChecksum:count 0
attr interpolationmode none
attr source packetDropReasonIsIncorrectlyReceived(packetDropped)
attr title "packets dropped (checksum error), count"
scalar SingleCell.V[9].ipv4.ip packetDropAddressResolutionFailed:count 0
attr interpolationmode none
attr source packetDropReasonIsAddressResolutionFailed(packetDropped)
attr title "packet drop: address resolution failed, count"
scalar SingleCell.V[9].ipv4.ip packetDropAddressResolutionFailed:sum(packetBytes) 0
attr interpolationmode none
attr source packetDropReasonIsAddressResolutionFailed(packetDropped)
attr title "packet drop: address resolution failed, sum(packetBytes)"
scalar SingleCell.V[9].ipv4.ip packetDropHopLimitReached:count 0
attr interpolationmode none
attr source packetDropReasonIsHopLimitReached(packetDropped)
attr title "packet drop: hop limit reached, count"
scalar SingleCell.V[9].ipv4.ip packetDropHopLimitReached:sum(packetBytes) 0
attr interpolationmode none
attr source packetDropReasonIsHopLimitReached(packetDropped)
attr title "packet drop: hop limit reached, sum(packetBytes)"
scalar SingleCell.V[9].ipv4.ip packetDropForwardingDisabled:count 0
attr interpolationmode none
attr source packetDropReasonIsForwardingDisabled(packetDropped)
attr title "packet drop: forwarding disabled, count"
scalar SingleCell.V[9].ipv4.ip packetDropForwardingDisabled:sum(packetBytes) 0
attr interpolationmode none
attr source packetDropReasonIsForwardingDisabled(packetDropped)
attr title "packet drop: forwarding disabled, sum(packetBytes)"
scalar SingleCell.V[9].ipv4.ip packetDropNoInterfaceFound:count 0
attr interpolationmode none
attr source packetDropReasonIsNoInterfaceFound(packetDropped)
attr title "packet drop: no interface found, count"
scalar SingleCell.V[9].ipv4.ip packetDropNoInterfaceFound:sum(packetBytes) 0
attr interpolationmode none
attr source packetDropReasonIsNoInterfaceFound(packetDropped)
attr title "packet drop: no interface found, sum(packetBytes)"
scalar SingleCell.V[9].ipv4.ip packetDropNoRouteFound:count 0
attr interpolationmode none
attr source packetDropReasonIsNoRouteFound(packetDropped)
attr title "packet drop: no route found, count"
scalar SingleCell.V[9].ipv4.ip packetDropNoRouteFound:sum(packetBytes) 0
attr interpolationmode none
attr source packetDropReasonIsNoRouteFound(packetDropped)
attr title "packet drop: no route found, sum(packetBytes)"
scalar SingleCell.V[9].ipv4.ip packetDropUndefined:count 0
attr interpolationmode none
attr source packetDropReasonIsUndefined(packetDropped)
attr title "packet drop: undefined, count"
scalar SingleCell.V[9].ipv4.ip packetDropUndefined:sum(packetBytes) 0
attr interpolationmode none
attr source packetDropReasonIsUndefined(packetDropped)
attr title "packet drop: undefined, sum(packetBytes)"
scalar SingleCell.V[9].lteNic.pdcpRrc sentPacketToLowerLayer:count 0
attr interpolationmode none
attr source sentPacketToLowerLayer
scalar SingleCell.V[9].lteNic.pdcpRrc sentPacketToLowerLayer:sum(packetBytes) 0
attr interpolationmode none
attr source sentPacketToLowerLayer
scalar SingleCell.V[9].lteNic.pdcpRrc sentPacketToUpperLayer:count 0
attr interpolationmode none
attr source sentPacketToUpperLayer
scalar SingleCell.V[9].lteNic.pdcpRrc sentPacketToUpperLayer:sum(packetBytes) 0
attr interpolationmode none
attr source sentPacketToUpperLayer
scalar SingleCell.V[9].lteNic.pdcpRrc receivedPacketFromLowerLayer:count 0
attr interpolationmode none
attr source receivedPacketFromLowerLayer
scalar SingleCell.V[9].lteNic.pdcpRrc receivedPacketFromLowerLayer:sum(packetBytes) 0
attr interpolationmode none
attr source receivedPacketFromLowerLayer
scalar SingleCell.V[9].lteNic.pdcpRrc receivedPacketFromUpperLayer:count 0
attr interpolationmode none
attr source receivedPacketFromUpperLayer
scalar SingleCell.V[9].lteNic.pdcpRrc receivedPacketFromUpperLayer:sum(packetBytes) 0
attr interpolationmode none
attr source receivedPacketFromUpperLayer
scalar SingleCell.V[9].lteNic.rlc.tm rlcPacketLossDl:mean -nan
attr source rlcPacketLossDl
attr title "rlc Packet Loss, mean"
attr unit ""
scalar SingleCell.V[9].lteNic.rlc.tm rlcPacketLossDl:sum 0
attr source rlcPacketLossDl
attr title "rlc Packet Loss, sum"
attr unit ""
scalar SingleCell.V[9].lteNic.rlc.tm rlcPacketLossUl:mean -nan
attr source rlcPacketLossUl
attr title "rlc Packet Loss, mean"
attr unit ""
scalar SingleCell.V[9].lteNic.rlc.tm rlcPacketLossUl:sum 0
attr source rlcPacketLossUl
attr title "rlc Packet Loss, sum"
attr unit ""
scalar SingleCell.V[9].lteNic.rlc.tm sentPacketToLowerLayer:count 0
attr interpolationmode none
attr source sentPacketToLowerLayer
scalar SingleCell.V[9].lteNic.rlc.tm sentPacketToLowerLayer:sum(packetBytes) 0
attr interpolationmode none
attr source sentPacketToLowerLayer
scalar SingleCell.V[9].lteNic.rlc.tm sentPacketToUpperLayer:count 0
attr interpolationmode none
attr source sentPacketToUpperLayer
scalar SingleCell.V[9].lteNic.rlc.tm sentPacketToUpperLayer:sum(packetBytes) 0
attr interpolationmode none
attr source sentPacketToUpperLayer
scalar SingleCell.V[9].lteNic.rlc.tm receivedPacketFromLowerLayer:count 0
attr interpolationmode none
attr source receivedPacketFromLowerLayer
scalar SingleCell.V[9].lteNic.rlc.tm receivedPacketFromLowerLayer:sum(packetBytes) 0
attr interpolationmode none
attr source receivedPacketFromLowerLayer
scalar SingleCell.V[9].lteNic.rlc.tm receivedPacketFromUpperLayer:count 0
attr interpolationmode none
attr source receivedPacketFromUpperLayer
scalar SingleCell.V[9].lteNic.rlc.tm receivedPacketFromUpperLayer:sum(packetBytes) 0
attr interpolationmode none
attr source receivedPacketFromUpperLayer
scalar SingleCell.V[9].lteNic.rlc.um rlcPduPacketLossDl:mean -nan
attr source rlcPduPacketLossDl
attr title "rlc Packet Loss, mean"
attr unit ""
scalar SingleCell.V[9].lteNic.rlc.um rlcPduPacketLossUl:mean -nan
attr source rlcPduPacketLossUl
attr title "rlc Packet Loss, mean"
attr unit ""
scalar SingleCell.V[9].lteNic.rlc.um rlcPduThroughputUl:mean -nan
attr source rlcPduThroughputUl
attr title "Throughput at the rlc layer UL, mean"
attr unit Bps
scalar SingleCell.V[9].lteNic.rlc.um rlcPduDelayUl:mean -nan
attr source rlcPduDelayUl
attr title "Delay at the rlc layer UL, mean"
attr unit s
scalar SingleCell.V[9].lteNic.rlc.um rlcPduThroughputDl:mean -nan
attr source rlcPduThroughputDl
attr title "Throughput at the rlc layer DL, mean"
attr unit Bps
scalar SingleCell.V[9].lteNic.rlc.um rlcPduDelayDl:mean -nan
attr source rlcPduDelayDl
attr title "Delay at the rlc layer UL, mean"
attr unit s
scalar SingleCell.V[9].lteNic.rlc.um rlcCellPacketLossUl:mean -nan
attr source rlcCellPacketLossUl
attr title "rlc Cell Packet Loss, mean"
attr unit ""
scalar SingleCell.V[9].lteNic.rlc.um rlcCellPacketLossDl:mean -nan
attr source rlcCellPacketLossDl
attr title "rlc Cell Packet Loss, mean"
attr unit ""
scalar SingleCell.V[9].lteNic.rlc.um rlcCellThroughputDl:mean -nan
attr source rlcCellThroughputDl
attr title "Cell Throughput at the rlc layer DL, mean"
attr unit Bps
scalar SingleCell.V[9].lteNic.rlc.um rlcCellThroughputUl:mean -nan
attr source rlcCellThroughputUl
attr title "Cell Throughput at the rlc layer UL, mean"
attr unit Bps
scalar SingleCell.V[9].lteNic.rlc.um rlcPacketLossTotal:mean -nan
attr source rlcPacketLossTotal
attr title "rlc Packet Loss, mean"
attr unit ""
scalar SingleCell.V[9].lteNic.rlc.um rlcThroughputUl:mean -nan
attr source rlcThroughputUl
attr title "Throughput at the rlc layer UL, mean"
attr unit Bps
scalar SingleCell.V[9].lteNic.rlc.um rlcDelayUl:mean -nan
attr source rlcDelayUl
attr title "Delay at the rlc layer UL, mean"
attr unit s
scalar SingleCell.V[9].lteNic.rlc.um rlcThroughputDl:mean -nan
attr source rlcThroughputDl
attr title "Throughput at the rlc layer DL, mean"
attr unit Bps
scalar SingleCell.V[9].lteNic.rlc.um rlcDelayDl:mean -nan
attr source rlcDelayDl
attr title "Delay at the rlc layer UL, mean"
attr unit s
scalar SingleCell.V[9].lteNic.rlc.um rlcPacketLossDl:mean -nan
attr source rlcPacketLossDl
attr title "rlc Packet Loss, mean"
attr unit ""
scalar SingleCell.V[9].lteNic.rlc.um rlcPacketLossDl:sum 0
attr source rlcPacketLossDl
attr title "rlc Packet Loss, sum"
attr unit ""
scalar SingleCell.V[9].lteNic.rlc.um rlcPacketLossUl:mean -nan
attr source rlcPacketLossUl
attr title "rlc Packet Loss, mean"
attr unit ""
scalar SingleCell.V[9].lteNic.rlc.um rlcPacketLossUl:sum 0
attr source rlcPacketLossUl
attr title "rlc Packet Loss, sum"
attr unit ""
scalar SingleCell.V[9].lteNic.rlc.um sentPacketToLowerLayer:count 0
attr interpolationmode none
attr source sentPacketToLowerLayer
scalar SingleCell.V[9].lteNic.rlc.um sentPacketToLowerLayer:sum(packetBytes) 0
attr interpolationmode none
attr source sentPacketToLowerLayer
scalar SingleCell.V[9].lteNic.rlc.um sentPacketToUpperLayer:count 0
attr interpolationmode none
attr source sentPacketToUpperLayer
scalar SingleCell.V[9].lteNic.rlc.um sentPacketToUpperLayer:sum(packetBytes) 0
attr interpolationmode none
attr source sentPacketToUpperLayer
scalar SingleCell.V[9].lteNic.rlc.um receivedPacketFromLowerLayer:count 0
attr interpolationmode none
attr source receivedPacketFromLowerLayer
scalar SingleCell.V[9].lteNic.rlc.um receivedPacketFromLowerLayer:sum(packetBytes) 0
attr interpolationmode none
attr source receivedPacketFromLowerLayer
scalar SingleCell.V[9].lteNic.rlc.um receivedPacketFromUpperLayer:count 0
attr interpolationmode none
attr source receivedPacketFromUpperLayer
scalar SingleCell.V[9].lteNic.rlc.um receivedPacketFromUpperLayer:sum(packetBytes) 0
attr interpolationmode none
attr source receivedPacketFromUpperLayer
scalar SingleCell.V[9].lteNic.rlc.am rlcPduPacketLossDl:mean -nan
attr source rlcPduPacketLossDl
attr title "rlc Packet Loss, mean"
attr unit ""
scalar SingleCell.V[9].lteNic.rlc.am rlcPduPacketLossUl:mean -nan
attr source rlcPduPacketLossUl
attr title "rlc Packet Loss, mean"
attr unit ""
scalar SingleCell.V[9].lteNic.rlc.am rlcPduThroughputUl:mean -nan
attr source rlcPduThroughputUl
attr title "Throughput at the rlc layer UL, mean"
attr unit Bps
scalar SingleCell.V[9].lteNic.rlc.am rlcPduDelayUl:mean -nan
attr source rlcPduDelayUl
attr title "Delay at the rlc layer UL, mean"
attr unit s
scalar SingleCell.V[9].lteNic.rlc.am rlcPduThroughputDl:mean -nan
attr source rlcPduThroughputDl
attr title "Throughput at the rlc layer DL, mean"
attr unit Bps
scalar SingleCell.V[9].lteNic.rlc.am rlcPduDelayDl:mean -nan
attr source rlcPduDelayDl
attr title "Delay at the rlc layer UL, mean"
attr unit s
scalar SingleCell.V[9].lteNic.rlc.am rlcCellPacketLossUl:mean -nan
attr source rlcCellPacketLossUl
attr title "rlc Cell Packet Loss, mean"
attr unit ""
scalar SingleCell.V[9].lteNic.rlc.am rlcCellPacketLossDl:mean -nan
attr source rlcCellPacketLossDl
attr title "rlc Cell Packet Loss, mean"
attr unit ""
scalar SingleCell.V[9].lteNic.rlc.am rlcCellThroughputDl:mean -nan
attr source rlcCellThroughputDl
attr title "Cell Throughput at the rlc layer DL, mean"
attr unit Bps
scalar SingleCell.V[9].lteNic.rlc.am rlcCellThroughputUl:mean -nan
attr source rlcCellThroughputUl
attr title "Cell Throughput at the rlc layer UL, mean"
attr unit Bps
scalar SingleCell.V[9].lteNic.rlc.am rlcPacketLossTotal:mean -nan
attr source rlcPacketLossTotal
attr title "rlc Packet Loss, mean"
attr unit ""
scalar SingleCell.V[9].lteNic.rlc.am rlcThroughputUl:mean -nan
attr source rlcThroughputUl
attr title "Throughput at the rlc layer UL, mean"
attr unit Bps
scalar SingleCell.V[9].lteNic.rlc.am rlcDelayUl:mean -nan
attr source rlcDelayUl
attr title "Delay at the rlc layer UL, mean"
attr unit s
scalar SingleCell.V[9].lteNic.rlc.am rlcThroughputDl:mean -nan
attr source rlcThroughputDl
attr title "Throughput at the rlc layer DL, mean"
attr unit Bps
scalar SingleCell.V[9].lteNic.rlc.am rlcDelayDl:mean -nan
attr source rlcDelayDl
attr title "Delay at the rlc layer UL, mean"
attr unit s
scalar SingleCell.V[9].lteNic.rlc.am rlcPacketLossDl:mean -nan
attr source rlcPacketLossDl
attr title "rlc Packet Loss, mean"
attr unit ""
scalar SingleCell.V[9].lteNic.rlc.am rlcPacketLossUl:mean -nan
attr source rlcPacketLossUl
attr title "rlc Packet Loss, mean"
attr unit ""
scalar SingleCell.V[9].lteNic.mac measuredItbs:mean -nan
attr source measuredItbs
attr title "TBS index, mean"
attr unit ""
scalar SingleCell.V[9].lteNic.mac harqErrorRate_4th_Dl:mean -nan
attr source harqErrorRate_4th_Dl
attr title "Harq Error Rate Dl, mean"
attr unit ""
scalar SingleCell.V[9].lteNic.mac harqErrorRate_4th_Ul:mean -nan
attr source harqErrorRate_4th_Ul
attr title "Harq Error Rate Ul, mean"
attr unit ""
scalar SingleCell.V[9].lteNic.mac harqErrorRate_3rd_Dl:mean -nan
attr source harqErrorRate_3rd_Dl
attr title "Harq Error Rate Dl, mean"
attr unit ""
scalar SingleCell.V[9].lteNic.mac harqErrorRate_3rd_Ul:mean -nan
attr source harqErrorRate_3rd_Ul
attr title "Harq Error Rate Ul, mean"
attr unit ""
scalar SingleCell.V[9].lteNic.mac harqErrorRate_2nd_Dl:mean -nan
attr source harqErrorRate_2nd_Dl
attr title "Harq Error Rate Dl, mean"
attr unit ""
scalar SingleCell.V[9].lteNic.mac harqErrorRate_2nd_Ul:mean -nan
attr source harqErrorRate_2nd_Ul
attr title "Harq Error Rate Ul, mean"
attr unit ""
scalar SingleCell.V[9].lteNic.mac harqErrorRate_1st_Dl:mean -nan
attr source harqErrorRate_1st_Dl
attr title "Harq Error Rate Dl, mean"
attr unit ""
scalar SingleCell.V[9].lteNic.mac harqErrorRate_1st_Ul:mean -nan
attr source harqErrorRate_1st_Ul
attr title "Harq Error Rate Ul, mean"
attr unit ""
scalar SingleCell.V[9].lteNic.mac harqErrorRateDl:mean -nan
attr source harqErrorRateDl
attr title "Harq Error Rate Dl, mean"
attr unit ""
scalar SingleCell.V[9].lteNic.mac harqErrorRateUl:mean -nan
attr source harqErrorRateUl
attr title "Harq Error Rate Ul, mean"
attr unit ""
scalar SingleCell.V[9].lteNic.mac macBufferOverFlowD2D:mean -nan
attr source macBufferOverFlowD2D
attr title "Mac buffer overflow as function of time, mean"
attr unit Byte/s
scalar SingleCell.V[9].lteNic.mac macBufferOverFlowUl:mean -nan
attr source macBufferOverFlowUl
attr title "Mac buffer overflow as function of time, mean"
attr unit Byte/s
scalar SingleCell.V[9].lteNic.mac macBufferOverFlowDl:mean -nan
attr source macBufferOverFlowDl
attr title "Mac buffer overflow as function of time, mean"
attr unit Byte/s
scalar SingleCell.V[9].lteNic.mac macPacketLossDl:mean -nan
attr source macPacketLossDl
attr title "Mac Packet Loss Dl, mean"
attr unit ""
scalar SingleCell.V[9].lteNic.mac macPacketLossUl:mean -nan
attr source macPacketLossUl
attr title "Mac Packet Loss Ul, mean"
attr unit ""
scalar SingleCell.V[9].lteNic.mac macCellPacketLossUl:mean -nan
attr source macCellPacketLossUl
attr title "Mac Cell Packet Loss Ul, mean"
attr unit ""
scalar SingleCell.V[9].lteNic.mac macCellPacketLossDl:mean -nan
attr source macCellPacketLossDl
attr title "Mac Cell Packet Loss Dl, mean"
attr unit ""
scalar SingleCell.V[9].lteNic.mac macCellThroughputDl:mean -nan
attr source macCellThroughputDl
attr title "Cell Throughput at the MAC layer DL, mean"
attr unit Bps
scalar SingleCell.V[9].lteNic.mac macCellThroughputUl:mean -nan
attr source macCellThroughputUl
attr title "Cell Throughput at the MAC layer UL, mean"
attr unit Bps
scalar SingleCell.V[9].lteNic.mac macThroughputUl:mean -nan
attr source macThroughputUl
attr title "Throughput at the MAC layer UL, mean"
attr unit Bps
scalar SingleCell.V[9].lteNic.mac macDelayUl:mean -nan
attr source macDelayUl
attr title "Delay at the MAC layer UL, mean"
attr unit s
scalar SingleCell.V[9].lteNic.mac macThroughputDl:mean -nan
attr source macThroughputDl
attr title "Throughput at the MAC layer DL, mean"
attr unit Bps
scalar SingleCell.V[9].lteNic.mac macDelayDl:mean -nan
attr source macDelayDl
attr title "Delay at the MAC layer UL, mean"
attr unit s
scalar SingleCell.V[9].lteNic.mac sentPacketToLowerLayer:count 0
attr interpolationmode none
attr source sentPacketToLowerLayer
scalar SingleCell.V[9].lteNic.mac sentPacketToLowerLayer:sum(packetBytes) 0
attr interpolationmode none
attr source sentPacketToLowerLayer
scalar SingleCell.V[9].lteNic.mac sentPacketToUpperLayer:count 0
attr interpolationmode none
attr source sentPacketToUpperLayer
scalar SingleCell.V[9].lteNic.mac sentPacketToUpperLayer:sum(packetBytes) 0
attr interpolationmode none
attr source sentPacketToUpperLayer
scalar SingleCell.V[9].lteNic.mac receivedPacketFromLowerLayer:count 0
attr interpolationmode none
attr source receivedPacketFromLowerLayer
scalar SingleCell.V[9].lteNic.mac receivedPacketFromLowerLayer:sum(packetBytes) 0
attr interpolationmode none
attr source receivedPacketFromLowerLayer
scalar SingleCell.V[9].lteNic.mac receivedPacketFromUpperLayer:count 0
attr interpolationmode none
attr source receivedPacketFromUpperLayer
scalar SingleCell.V[9].lteNic.mac receivedPacketFromUpperLayer:sum(packetBytes) 0
attr interpolationmode none
attr source receivedPacketFromUpperLayer
scalar SingleCell.V[9].lteNic.phy averageCqiUl:mean -nan
attr source averageCqiUl
attr title "Average Cqi reported in UL, mean"
attr unit cqi
scalar SingleCell.V[9].lteNic.phy averageCqiDl:mean -nan
attr source averageCqiDl
attr title "Average Cqi reported in DL, mean"
attr unit cqi
scalar SingleCell.V[9].lteNic.channelModel rcvdSinr:mean -nan
attr source rcvdSinr
attr title "SINR measured at packet reception, mean"
attr unit dB

